@<TRIPOS>MOLECULE
Lenvatinib
 49 52 0 0 0
SMALL
GASTEIGER

@<TRIPOS>ATOM
      1 C          -6.1440   -6.2984    0.2484 C.3     1  UNL1        0.0788
      2 O          -4.7203   -6.0386    0.3001 O.3     1  UNL1       -0.4943
      3 C          -4.1193   -4.8377   -0.0644 C.ar    1  UNL1        0.1342
      4 C          -4.9201   -3.7310   -0.3763 C.ar    1  UNL1        0.0069
      5 C          -4.3689   -2.5092   -0.7543 C.ar    1  UNL1        0.0780
      6 N          -5.1925   -1.4763   -1.0536 N.ar    1  UNL1       -0.2546
      7 C          -4.6434   -0.3036   -1.4356 C.ar    1  UNL1        0.0318
      8 C          -3.2689   -0.1110   -1.5337 C.ar    1  UNL1       -0.0006
      9 C          -2.4123   -1.1657   -1.2103 C.ar    1  UNL1        0.1390
     10 O          -1.0358   -1.0339   -1.3178 O.3     1  UNL1       -0.4553
     11 C          -0.3573    0.1657   -1.3770 C.ar    1  UNL1        0.1300
     12 C          -0.5063    1.1226   -0.3731 C.ar    1  UNL1       -0.0175
     13 C           0.1811    2.3316   -0.4579 C.ar    1  UNL1       -0.0355
     14 C           1.0214    2.5909   -1.5451 C.ar    1  UNL1        0.0534
     15 N           1.7281    3.8319   -1.6481 N.am    1  UNL1       -0.2681
     16 C           1.2305    5.0691   -1.4432 C.2     1  UNL1        0.3041
     17 O           0.0873    5.2876   -1.0932 O.2     1  UNL1       -0.2525
     18 N           2.1141    6.0495   -1.7157 N.am    1  UNL1       -0.2963
     19 C           1.8024    7.4577   -1.6089 C.3     1  UNL1        0.0247
     20 C           2.6350    8.3837   -2.4465 C.3     1  UNL1       -0.0328
     21 C           1.2061    8.1206   -2.8163 C.3     1  UNL1       -0.0328
     22 C           1.1936    1.6123   -2.5297 C.ar    1  UNL1        0.0656
     23 CL          2.2470    1.8829   -3.8795 Cl      1  UNL1       -0.0815
     24 C           0.5056    0.4031   -2.4440 C.ar    1  UNL1        0.0008
     25 C          -2.9741   -2.3891   -0.8210 C.ar    1  UNL1        0.0436
     26 C          -2.1677   -3.4841   -0.5039 C.ar    1  UNL1       -0.0334
     27 C          -2.7130   -4.7161   -0.1229 C.ar    1  UNL1        0.0788
     28 C          -1.7291   -5.8272    0.1937 C.2     1  UNL1        0.2451
     29 N          -2.1990   -7.0315    0.5621 N.am    1  UNL1       -0.3252
     30 O          -0.5247   -5.6778    0.1297 O.2     1  UNL1       -0.2703
     31 H          -6.3237   -7.3336    0.5507 H       1  UNL1        0.0660
     32 H          -6.5061   -6.1509   -0.7730 H       1  UNL1        0.0660
     33 H          -6.6657   -5.6262    0.9353 H       1  UNL1        0.0660
     34 H          -6.0028   -3.8051   -0.3313 H       1  UNL1        0.0676
     35 H          -5.3424    0.4949   -1.6765 H       1  UNL1        0.0831
     36 H          -2.8840    0.8492   -1.8661 H       1  UNL1        0.0670
     37 H          -1.1585    0.9295    0.4751 H       1  UNL1        0.0655
     38 H           0.0577    3.0698    0.3309 H       1  UNL1        0.0638
     39 H           2.6559    3.7592   -2.0355 H       1  UNL1        0.1564
     40 H           3.0405    5.7883   -2.0152 H       1  UNL1        0.1505
     41 H           1.4838    7.7819   -0.6209 H       1  UNL1        0.0499
     42 H           3.4075    7.9548   -3.0790 H       1  UNL1        0.0284
     43 H           2.8785    9.3580   -2.0325 H       1  UNL1        0.0284
     44 H           1.0125    7.5100   -3.6941 H       1  UNL1        0.0284
     45 H           0.4852    8.9159   -2.6506 H       1  UNL1        0.0284
     46 H           0.6334   -0.3531   -3.2148 H       1  UNL1        0.0669
     47 H          -1.0873   -3.3759   -0.5569 H       1  UNL1        0.0634
     48 H          -3.1976   -7.1762    0.6222 H       1  UNL1        0.1453
     49 H          -1.5605   -7.7810    0.7763 H       1  UNL1        0.1453
@<TRIPOS>BOND
     1     1     2    1
     2     2     3    1
     3     3     4   ar
     4     4     5   ar
     5     5     6   ar
     6     6     7   ar
     7     7     8   ar
     8     8     9   ar
     9     9    10    1
    10    10    11    1
    11    11    12   ar
    12    12    13   ar
    13    13    14   ar
    14    14    15    1
    15    15    16   am
    16    16    17    2
    17    16    18   am
    18    18    19    1
    19    19    20    1
    20    20    21    1
    21    19    21    1
    22    14    22   ar
    23    22    23    1
    24    22    24   ar
    25    11    24   ar
    26     9    25   ar
    27     5    25   ar
    28    25    26   ar
    29    26    27   ar
    30     3    27   ar
    31    27    28    1
    32    28    29   am
    33    28    30    2
    34     1    31    1
    35     1    32    1
    36     1    33    1
    37     4    34    1
    38     7    35    1
    39     8    36    1
    40    12    37    1
    41    13    38    1
    42    15    39    1
    43    18    40    1
    44    19    41    1
    45    20    42    1
    46    20    43    1
    47    21    44    1
    48    21    45    1
    49    24    46    1
    50    26    47    1
    51    29    48    1
    52    29    49    1
