@<TRIPOS>MOLECULE
*****
 35 36 0 0 0
SMALL
GASTEIGER

@<TRIPOS>ATOM
      1 N           0.6385   -0.6144    0.6368 N.3     1  UNL1       -0.3181
      2 CA          2.0717   -0.7991    0.9607 C.3     1  UNL1        0.1072
      3 C           2.5453    0.3155    1.9273 C.3     1  UNL1       -0.0020
      4 C           2.3055    1.7297    1.4087 C.ar    1  UNL1       -0.0432
      5 C           1.1845    2.4494    1.8305 C.ar    1  UNL1       -0.0418
      6 C           0.9667    3.7468    1.3710 C.ar    1  UNL1        0.0569
      7 I          -0.7249    4.7902    2.0466 I       1  UNL1       -0.0400
      8 C           1.8661    4.3397    0.4830 C.ar    1  UNL1        0.1545
      9 O           1.6559    5.6305    0.0417 O.3     1  UNL1       -0.4539
     10 C           2.1059    6.7535    0.7105 C.ar    1  UNL1        0.1307
     11 C           1.5975    7.9943    0.3314 C.ar    1  UNL1       -0.0026
     12 C           2.0193    9.1517    0.9829 C.ar    1  UNL1        0.0592
     13 I           1.2174   10.9983    0.3866 I       1  UNL1       -0.0399
     14 C           2.9576    9.0795    2.0156 C.ar    1  UNL1        0.1432
     15 O           3.3697   10.2126    2.6551 O.3     1  UNL1       -0.5047
     16 C           3.4695    7.8340    2.3881 C.ar    1  UNL1        0.0592
     17 I           4.8875    7.6638    3.9273 I       1  UNL1       -0.0399
     18 C           3.0467    6.6748    1.7418 C.ar    1  UNL1       -0.0026
     19 C           2.9835    3.6198    0.0557 C.ar    1  UNL1        0.0569
     20 I           4.3664    4.4708   -1.2742 I       1  UNL1       -0.0400
     21 C           3.2064    2.3255    0.5220 C.ar    1  UNL1       -0.0418
     22 C           2.9540   -0.8915   -0.2799 C.2     1  UNL1        0.3220
     23 O           2.3042   -1.1756   -1.3770 O.3     1  UNL1       -0.4795
     24 OXT         4.1659   -0.8347   -0.2467 O.2     1  UNL1       -0.2492
     25 H1          0.5053    0.2861    0.1790 H       1  UNL1        0.1190
     26 H2          0.0870   -0.6011    1.4923 H       1  UNL1        0.1190
     27 HA          2.1829   -1.7626    1.4662 H       1  UNL1        0.0577
     28 H           3.6080    0.1829    2.1460 H       1  UNL1        0.0334
     29 H           2.0271    0.1908    2.8814 H       1  UNL1        0.0334
     30 H           0.4767    2.0013    2.5239 H       1  UNL1        0.0632
     31 H           0.8663    8.0566   -0.4709 H       1  UNL1        0.0666
     32 H           2.9150   10.9867    2.2759 H       1  UNL1        0.2922
     33 H           3.4604    5.7178    2.0471 H       1  UNL1        0.0666
     34 H           4.0894    1.7845    0.1912 H       1  UNL1        0.0632
     35 H           1.3622   -1.2180   -1.1279 H       1  UNL1        0.2951
@<TRIPOS>BOND
     1     1     2    1
     2     2     3    1
     3     3     4    1
     4     4     5   ar
     5     5     6   ar
     6     6     7    1
     7     6     8   ar
     8     8     9    1
     9     9    10    1
    10    10    11   ar
    11    11    12   ar
    12    12    13    1
    13    12    14   ar
    14    14    15    1
    15    14    16   ar
    16    16    17    1
    17    16    18   ar
    18    10    18   ar
    19     8    19   ar
    20    19    20    1
    21    19    21   ar
    22     4    21   ar
    23     2    22    1
    24    22    23    1
    25    22    24    2
    26     1    25    1
    27     1    26    1
    28     2    27    1
    29     3    28    1
    30     3    29    1
    31     5    30    1
    32    11    31    1
    33    15    32    1
    34    18    33    1
    35    21    34    1
    36    23    35    1
