@<TRIPOS>MOLECULE
*****
 57 61 0 0 0
SMALL
GASTEIGER

@<TRIPOS>ATOM
      1 C           1.4631    0.7280   -1.4095 C.3     1  UNL1       -0.0219
      2 C           2.9123    0.6648   -0.9506 C.ar    1  UNL1        0.0486
      3 C           3.9621    1.6317   -1.1950 C.ar    1  UNL1        0.0393
      4 C           5.3363    1.4765   -0.6787 C.ar    1  UNL1        0.2575
      5 O           6.2342    2.2774   -0.8628 O.2     1  UNL1       -0.2673
      6 N           5.5372    0.3168    0.0032 N.ar    1  UNL1       -0.2965
      7 C           4.4680   -0.6181    0.2447 C.ar    1  UNL1        0.1125
      8 N           3.2192   -0.4357   -0.2314 N.ar    1  UNL1       -0.2384
      9 C           4.6588   -1.9333    0.9873 C.3     1  UNL1        0.0058
     10 C           5.9375   -1.9436    1.8421 C.3     1  UNL1       -0.0446
     11 C           7.1155   -1.4185    1.0058 C.3     1  UNL1       -0.0344
     12 C           6.8707    0.0468    0.5892 C.3     1  UNL1        0.0278
     13 C           3.6932    2.8039   -2.1123 C.3     1  UNL1       -0.0080
     14 C           3.5129    4.1116   -1.3094 C.3     1  UNL1        0.0031
     15 N           2.1919    4.1653   -0.6279 N.3     1  UNL1       -0.3020
     16 C           2.1979    3.7289    0.7937 C.3     1  UNL1       -0.0005
     17 C           2.7890    4.8072    1.7387 C.3     1  UNL1       -0.0318
     18 C           2.1902    6.2247    1.5197 C.3     1  UNL1        0.0075
     19 C           2.1175    6.5794    0.0134 C.3     1  UNL1       -0.0318
     20 C           1.4700    5.4476   -0.8143 C.3     1  UNL1       -0.0005
     21 C           0.8218    6.3764    2.1568 C.ar    1  UNL1        0.0945
     22 C           0.4048    7.6162    2.7406 C.ar    1  UNL1        0.0447
     23 C           0.6834    8.9101    2.3111 C.ar    1  UNL1       -0.0464
     24 C          -0.2551    9.9092    2.5647 C.ar    1  UNL1       -0.0256
     25 C          -1.4919    9.5877    3.1300 C.ar    1  UNL1        0.1270
     26 C          -1.8184    8.2692    3.4565 C.ar    1  UNL1        0.0192
     27 C          -0.8455    7.2184    3.2921 C.ar    1  UNL1        0.1702
     28 O          -1.2539    6.0106    2.7959 O.2     1  UNL1       -0.3543
     29 N          -0.1516    5.4505    2.1250 N.ar    1  UNL1       -0.0818
     30 F          -2.3972   10.5619    3.3271 F       1  UNL1       -0.2054
     31 H           1.0326    1.7084   -1.1996 H       1  UNL1        0.0293
     32 H           0.8490   -0.0197   -0.9011 H       1  UNL1        0.0293
     33 H           1.3987    0.5464   -2.4842 H       1  UNL1        0.0293
     34 H           4.7114   -2.7435    0.2557 H       1  UNL1        0.0343
     35 H           3.7975   -2.1351    1.6294 H       1  UNL1        0.0343
     36 H           6.1438   -2.9591    2.1883 H       1  UNL1        0.0270
     37 H           5.8007   -1.3119    2.7233 H       1  UNL1        0.0270
     38 H           7.2398   -2.0385    0.1141 H       1  UNL1        0.0282
     39 H           8.0411   -1.4844    1.5822 H       1  UNL1        0.0282
     40 H           7.6438    0.3299   -0.1310 H       1  UNL1        0.0493
     41 H           6.9805    0.6850    1.4704 H       1  UNL1        0.0493
     42 H           2.8195    2.6373   -2.7450 H       1  UNL1        0.0328
     43 H           4.5365    2.9304   -2.7951 H       1  UNL1        0.0328
     44 H           3.5762    4.9318   -2.0301 H       1  UNL1        0.0430
     45 H           4.3308    4.2401   -0.5954 H       1  UNL1        0.0430
     46 H           2.7701    2.8050    0.9042 H       1  UNL1        0.0427
     47 H           1.1708    3.5093    1.0938 H       1  UNL1        0.0427
     48 H           3.8673    4.8591    1.5723 H       1  UNL1        0.0284
     49 H           2.6506    4.5001    2.7782 H       1  UNL1        0.0284
     50 H           2.8655    6.9374    1.9995 H       1  UNL1        0.0366
     51 H           3.1285    6.7630   -0.3582 H       1  UNL1        0.0284
     52 H           1.5557    7.5045   -0.1326 H       1  UNL1        0.0284
     53 H           1.4685    5.7217   -1.8730 H       1  UNL1        0.0427
     54 H           0.4291    5.3209   -0.5045 H       1  UNL1        0.0427
     55 H           1.5894    9.1344    1.7543 H       1  UNL1        0.0626
     56 H          -0.0480   10.9342    2.2661 H       1  UNL1        0.0646
     57 H          -2.7928    8.0339    3.8772 H       1  UNL1        0.0684
@<TRIPOS>BOND
     1     1     2    1
     2     2     3   ar
     3     3     4   ar
     4     4     5    2
     5     4     6   ar
     6     6     7   ar
     7     7     8   ar
     8     2     8   ar
     9     7     9    1
    10     9    10    1
    11    10    11    1
    12    11    12    1
    13     6    12    1
    14     3    13    1
    15    13    14    1
    16    14    15    1
    17    15    16    1
    18    16    17    1
    19    17    18    1
    20    18    19    1
    21    19    20    1
    22    15    20    1
    23    18    21    1
    24    21    22   ar
    25    22    23   ar
    26    23    24   ar
    27    24    25   ar
    28    25    26   ar
    29    26    27   ar
    30    22    27   ar
    31    27    28   ar
    32    28    29   ar
    33    21    29   ar
    34    25    30    1
    35     1    31    1
    36     1    32    1
    37     1    33    1
    38     9    34    1
    39     9    35    1
    40    10    36    1
    41    10    37    1
    42    11    38    1
    43    11    39    1
    44    12    40    1
    45    12    41    1
    46    13    42    1
    47    13    43    1
    48    14    44    1
    49    14    45    1
    50    16    46    1
    51    16    47    1
    52    17    48    1
    53    17    49    1
    54    18    50    1
    55    19    51    1
    56    19    52    1
    57    20    53    1
    58    20    54    1
    59    23    55    1
    60    24    56    1
    61    26    57    1
