@<TRIPOS>MOLECULE
Enzalutamide
 48 50 0 0 0
SMALL
GASTEIGER

@<TRIPOS>ATOM
      1 C          -8.7372   -0.6714    0.9342 C.3     1  UNL1        0.0004
      2 N          -7.3148   -0.7486    0.5874 N.am    1  UNL1       -0.3143
      3 C          -6.3117   -0.7449    1.4967 C.2     1  UNL1        0.2466
      4 O          -6.5739   -0.6764    2.6816 O.2     1  UNL1       -0.2701
      5 C          -4.9003   -0.8258    0.9529 C.ar    1  UNL1        0.0719
      6 C          -4.6705   -0.9129   -0.4299 C.ar    1  UNL1       -0.0451
      7 C          -3.3774   -0.9898   -0.9413 C.ar    1  UNL1       -0.0394
      8 C          -2.2808   -0.9801   -0.0838 C.ar    1  UNL1        0.0392
      9 N          -0.9569   -1.0475   -0.6207 N.am    1  UNL1       -0.2676
     10 C          -0.3306   -0.0381   -1.2650 C.2     1  UNL1        0.1515
     11 S          -0.9259    1.5168   -1.4926 S.2     1  UNL1       -0.0174
     12 N           0.8282   -0.5370   -1.7432 N.am    1  UNL1       -0.2196
     13 C           1.7502    0.2268   -2.5262 C.ar    1  UNL1        0.0436
     14 C           2.4727    1.2654   -1.9447 C.ar    1  UNL1       -0.0386
     15 C           3.3664    2.0022   -2.7147 C.ar    1  UNL1       -0.0420
     16 C           3.5488    1.7064   -4.0670 C.ar    1  UNL1        0.0635
     17 C           4.4887    2.5118   -4.8089 C.1     1  UNL1        0.0997
     18 N           5.2337    3.1601   -5.3840 N.1     1  UNL1       -0.1909
     19 C           2.8294    0.6554   -4.6650 C.ar    1  UNL1        0.0739
     20 C           3.0029    0.2986   -6.1472 C.3     1  UNL1        0.4187
     21 F           2.6757    1.3228   -6.9555 F       1  UNL1       -0.1659
     22 F           4.2678   -0.0521   -6.4407 F       1  UNL1       -0.1659
     23 F           2.2385   -0.7347   -6.5469 F       1  UNL1       -0.1659
     24 C           1.9317   -0.0749   -3.8756 C.ar    1  UNL1       -0.0270
     25 C           1.0206   -1.8371   -1.4497 C.2     1  UNL1        0.2489
     26 O           1.9734   -2.5104   -1.7921 O.2     1  UNL1       -0.2725
     27 C          -0.1813   -2.2993   -0.6594 C.3     1  UNL1        0.1123
     28 C           0.2763   -2.7664    0.7412 C.3     1  UNL1       -0.0349
     29 C          -0.9136   -3.4353   -1.4093 C.3     1  UNL1       -0.0349
     30 C          -2.4874   -0.8848    1.2899 C.ar    1  UNL1       -0.0042
     31 C          -3.7807   -0.8141    1.8049 C.ar    1  UNL1        0.1372
     32 F          -3.9021   -0.7309    3.1427 F       1  UNL1       -0.2046
     33 H          -9.3313   -0.6122    0.0188 H       1  UNL1        0.0426
     34 H          -8.9179    0.2187    1.5433 H       1  UNL1        0.0426
     35 H          -9.0236   -1.5633    1.4982 H       1  UNL1        0.0426
     36 H          -7.0855   -0.8015   -0.3923 H       1  UNL1        0.1487
     37 H          -5.4949   -0.9233   -1.1365 H       1  UNL1        0.0626
     38 H          -3.2273   -1.0557   -2.0167 H       1  UNL1        0.0636
     39 H           2.3414    1.5034   -0.8914 H       1  UNL1        0.0637
     40 H           3.9247    2.8139   -2.2526 H       1  UNL1        0.0631
     41 H           1.3606   -0.8935   -4.3070 H       1  UNL1        0.0642
     42 H           0.7890   -1.9588    1.2695 H       1  UNL1        0.0255
     43 H           0.9659   -3.6101    0.6596 H       1  UNL1        0.0255
     44 H          -0.5770   -3.0850    1.3437 H       1  UNL1        0.0255
     45 H          -1.2142   -3.1066   -2.4071 H       1  UNL1        0.0255
     46 H          -1.8090   -3.7455   -0.8658 H       1  UNL1        0.0255
     47 H          -0.2633   -4.3063   -1.5199 H       1  UNL1        0.0255
     48 H          -1.6384   -0.8626    1.9690 H       1  UNL1        0.0665
@<TRIPOS>BOND
     1     1     2    1
     2     2     3   am
     3     3     4    2
     4     3     5    1
     5     5     6   ar
     6     6     7   ar
     7     7     8   ar
     8     8     9    1
     9     9    10    1
    10    10    11    2
    11    10    12    1
    12    12    13    1
    13    13    14   ar
    14    14    15   ar
    15    15    16   ar
    16    16    17    1
    17    17    18    3
    18    16    19   ar
    19    19    20    1
    20    20    21    1
    21    20    22    1
    22    20    23    1
    23    19    24   ar
    24    13    24   ar
    25    12    25   am
    26    25    26    2
    27    25    27    1
    28     9    27    1
    29    27    28    1
    30    27    29    1
    31     8    30   ar
    32    30    31   ar
    33     5    31   ar
    34    31    32    1
    35     1    33    1
    36     1    34    1
    37     1    35    1
    38     2    36    1
    39     6    37    1
    40     7    38    1
    41    14    39    1
    42    15    40    1
    43    24    41    1
    44    28    42    1
    45    28    43    1
    46    28    44    1
    47    29    45    1
    48    29    46    1
    49    29    47    1
    50    30    48    1
