@<TRIPOS>MOLECULE
*****
 31 32 0 0 0
SMALL
GASTEIGER

@<TRIPOS>ATOM
      1 C          13.7316   -1.6201    7.0514 C.3     1  UNL1        0.0788
      2 O          13.1134   -2.8266    7.5551 O.3     1  UNL1       -0.4951
      3 C          11.7653   -3.1089    7.4174 C.ar    1  UNL1        0.1207
      4 C          10.8808   -2.2622    6.7400 C.ar    1  UNL1       -0.0122
      5 C           9.5295   -2.5993    6.6366 C.ar    1  UNL1       -0.0144
      6 C           8.6443   -1.7608    5.9608 C.ar    1  UNL1       -0.0536
      7 C           7.2972   -2.1009    5.8602 C.ar    1  UNL1       -0.0572
      8 C           6.8124   -3.2792    6.4350 C.ar    1  UNL1       -0.0334
      9 C           7.7045   -4.1164    7.1164 C.ar    1  UNL1       -0.0501
     10 C           9.0567   -3.7834    7.2136 C.ar    1  UNL1       -0.0174
     11 C           9.9417   -4.6273    7.8852 C.ar    1  UNL1       -0.0506
     12 C          11.2898   -4.2901    7.9843 C.ar    1  UNL1       -0.0194
     13 C           5.3204   -3.5993    6.3141 C.3     1  UNL1        0.0784
     14 H           4.9959   -3.2714    5.3226 H       1  UNL1        0.0459
     15 C           4.4898   -2.7838    7.3325 C.3     1  UNL1       -0.0482
     16 C           5.0181   -5.0938    6.3713 C.2     1  UNL1        0.3119
     17 O           5.0850   -5.8147    5.3977 O.2     1  UNL1       -0.2503
     18 O           4.7653   -5.5667    7.5657 O.3     1  UNL1       -0.4802
     19 H          14.7966   -1.6418    7.2972 H       1  UNL1        0.0660
     20 H          13.2674   -0.7488    7.5215 H       1  UNL1        0.0660
     21 H          13.6100   -1.5729    5.9657 H       1  UNL1        0.0660
     22 H          11.2332   -1.3387    6.2894 H       1  UNL1        0.0660
     23 H           8.9992   -0.8375    5.5085 H       1  UNL1        0.0624
     24 H           6.6201   -1.4344    5.3308 H       1  UNL1        0.0621
     25 H           7.3565   -5.0374    7.5769 H       1  UNL1        0.0627
     26 H           9.5870   -5.5524    8.3338 H       1  UNL1        0.0625
     27 H          11.9747   -4.9521    8.5086 H       1  UNL1        0.0654
     28 H           3.4270   -3.0191    7.2366 H       1  UNL1        0.0241
     29 H           4.6154   -1.7135    7.1537 H       1  UNL1        0.0241
     30 H           4.8042   -2.9937    8.3575 H       1  UNL1        0.0241
     31 H           4.7987   -4.8195    8.1872 H       1  UNL1        0.2951
@<TRIPOS>BOND
     1     1     2    1
     2     2     3    1
     3     3     4   ar
     4     4     5   ar
     5     5     6   ar
     6     6     7   ar
     7     7     8   ar
     8     8     9   ar
     9     9    10   ar
    10     5    10   ar
    11    10    11   ar
    12    11    12   ar
    13     3    12   ar
    14    13    15    1
    15    13    16    1
    16    16    17    2
    17    16    18    1
    18    13    14    1
    19    13     8    1
    20     1    19    1
    21     1    20    1
    22     1    21    1
    23     4    22    1
    24     6    23    1
    25     7    24    1
    26     9    25    1
    27    11    26    1
    28    12    27    1
    29    15    28    1
    30    15    29    1
    31    15    30    1
    32    18    31    1
