@<TRIPOS>MOLECULE
*****
 38 38 0 0 0
SMALL
GASTEIGER

@<TRIPOS>ATOM
      1 C           1.2507   -0.4659    0.1648 C.3     1  UNL1       -0.0473
      2 C           2.6527   -0.1147   -0.3841 C.3     1  UNL1        0.0108
      3 C           3.6890   -1.0528    0.2837 C.3     1  UNL1       -0.0473
      4 C           2.6530   -0.3388   -1.9173 C.3     1  UNL1       -0.0473
      5 N           2.8918    1.3224   -0.0684 N.3     1  UNL1       -0.3086
      6 C           4.2327    1.8870   -0.3588 C.3     1  UNL1        0.0266
      7 C           5.1388    1.9064    0.8921 C.3     1  UNL1        0.0926
      8 C           4.6136    2.8501    1.9716 C.ar    1  UNL1       -0.0174
      9 C           3.7998    2.3379    2.9821 C.ar    1  UNL1       -0.0472
     10 C           3.2896    3.1604    3.9963 C.ar    1  UNL1        0.0195
     11 C           3.6119    4.5262    3.9849 C.ar    1  UNL1        0.1222
     12 C           4.4185    5.0418    2.9710 C.ar    1  UNL1       -0.0195
     13 C           4.9148    4.2132    1.9680 C.ar    1  UNL1       -0.0526
     14 O           3.1523    5.3931    4.9413 O.3     1  UNL1       -0.5064
     15 C           2.3795    2.5910    5.0856 C.3     1  UNL1        0.0727
     16 O           2.2529    1.1647    5.0184 O.3     1  UNL1       -0.3903
     17 O           6.4559    2.2709    0.4800 O.3     1  UNL1       -0.3859
     18 H           0.9983   -1.5086   -0.0437 H       1  UNL1        0.0247
     19 H           0.4843    0.1656   -0.2917 H       1  UNL1        0.0247
     20 H           1.2105   -0.3175    1.2471 H       1  UNL1        0.0247
     21 H           3.4351   -2.0996    0.0994 H       1  UNL1        0.0247
     22 H           3.7124   -0.8996    1.3654 H       1  UNL1        0.0247
     23 H           4.6928   -0.8850   -0.1131 H       1  UNL1        0.0247
     24 H           2.3651   -1.3654   -2.1573 H       1  UNL1        0.0247
     25 H           3.6408   -0.1654   -2.3490 H       1  UNL1        0.0247
     26 H           1.9449    0.3337   -2.4077 H       1  UNL1        0.0247
     27 H           2.1861    1.8775   -0.5486 H       1  UNL1        0.1225
     28 H           4.7205    1.3360   -1.1661 H       1  UNL1        0.0453
     29 H           4.0994    2.9191   -0.6942 H       1  UNL1        0.0453
     30 H           5.2042    0.8980    1.3051 H       1  UNL1        0.0656
     31 H           3.5610    1.2779    2.9600 H       1  UNL1        0.0626
     32 H           4.6639    6.1012    2.9607 H       1  UNL1        0.0654
     33 H           5.5392    4.6388    1.1868 H       1  UNL1        0.0622
     34 H           2.6647    4.9374    5.6497 H       1  UNL1        0.2921
     35 H           1.3840    3.0334    4.9905 H       1  UNL1        0.0608
     36 H           2.7755    2.8556    6.0698 H       1  UNL1        0.0608
     37 H           1.5816    0.8671    5.6572 H       1  UNL1        0.2098
     38 H           6.3840    3.0570   -0.0881 H       1  UNL1        0.2103
@<TRIPOS>BOND
     1     1     2    1
     2     2     3    1
     3     2     4    1
     4     2     5    1
     5     5     6    1
     6     6     7    1
     7     7     8    1
     8     8     9   ar
     9     9    10   ar
    10    10    11   ar
    11    11    12   ar
    12    12    13   ar
    13     8    13   ar
    14    11    14    1
    15    10    15    1
    16    15    16    1
    17     7    17    1
    18     1    18    1
    19     1    19    1
    20     1    20    1
    21     3    21    1
    22     3    22    1
    23     3    23    1
    24     4    24    1
    25     4    25    1
    26     4    26    1
    27     5    27    1
    28     6    28    1
    29     6    29    1
    30     7    30    1
    31     9    31    1
    32    12    32    1
    33    13    33    1
    34    14    34    1
    35    15    35    1
    36    15    36    1
    37    16    37    1
    38    17    38    1
