@<TRIPOS>MOLECULE
*****
 44 44 0 0 0
SMALL
GASTEIGER

@<TRIPOS>ATOM
      1 O           1.1634   -0.1479   -0.0060 O.3     1  UNL1       -0.4894
      2 C           0.7117    1.0955   -0.3969 C.ar    1  UNL1        0.1206
      3 C          -0.6549    1.3623   -0.3455 C.ar    1  UNL1       -0.0197
      4 C          -1.1449    2.5889   -0.7892 C.ar    1  UNL1       -0.0550
      5 C          -0.2704    3.5609   -1.2807 C.ar    1  UNL1       -0.0450
      6 C           1.1019    3.3006   -1.3027 C.ar    1  UNL1       -0.0550
      7 C           1.5931    2.0728   -0.8633 C.ar    1  UNL1       -0.0197
      8 C          -0.8073    4.8818   -1.8074 C.3     1  UNL1       -0.0042
      9 C          -0.7806    5.9902   -0.7416 C.3     1  UNL1        0.0513
     10 O          -1.2926    7.2026   -1.3388 O.3     1  UNL1       -0.3826
     11 C          -1.3158    8.3444   -0.4554 C.3     1  UNL1        0.0365
     12 C           1.9770   -0.9418   -0.9029 C.3     1  UNL1        0.1166
     13 C           3.4187   -1.0474   -0.3633 C.3     1  UNL1        0.1015
     14 O           4.2337   -1.5568   -1.4216 O.3     1  UNL1       -0.3872
     15 C           3.4747   -1.9848    0.8693 C.3     1  UNL1        0.0254
     16 N           4.7270   -1.8791    1.6600 N.3     1  UNL1       -0.3112
     17 C           5.9480   -2.4113    1.0114 C.3     1  UNL1        0.0021
     18 C           6.8780   -1.2510    0.5984 C.3     1  UNL1       -0.0499
     19 C           6.6770   -3.3534    1.9894 C.3     1  UNL1       -0.0499
     20 H          -1.3424    0.6037    0.0209 H       1  UNL1        0.0654
     21 H          -2.2154    2.7791   -0.7631 H       1  UNL1        0.0621
     22 H           1.7939    4.0525   -1.6753 H       1  UNL1        0.0621
     23 H           2.6622    1.8799   -0.8945 H       1  UNL1        0.0654
     24 H          -1.8326    4.7493   -2.1621 H       1  UNL1        0.0335
     25 H          -0.2153    5.1981   -2.6699 H       1  UNL1        0.0335
     26 H          -1.4099    5.7098    0.1081 H       1  UNL1        0.0563
     27 H           0.2453    6.1590   -0.4016 H       1  UNL1        0.0563
     28 H          -1.7178    9.2027   -1.0003 H       1  UNL1        0.0523
     29 H          -0.2991    8.5685   -0.1209 H       1  UNL1        0.0523
     30 H          -1.9537    8.1276    0.4060 H       1  UNL1        0.0523
     31 H           1.5343   -1.9386   -0.9805 H       1  UNL1        0.0723
     32 H           1.9770   -0.4813   -1.8956 H       1  UNL1        0.0723
     33 H           3.7705   -0.0515   -0.0812 H       1  UNL1        0.0640
     34 H           3.9692   -2.4777   -1.5941 H       1  UNL1        0.2100
     35 H           2.6504   -1.7113    1.5342 H       1  UNL1        0.0450
     36 H           3.3189   -3.0220    0.5600 H       1  UNL1        0.0450
     37 H           4.5909   -2.3700    2.5415 H       1  UNL1        0.1223
     38 H           5.6830   -2.9947    0.1256 H       1  UNL1        0.0455
     39 H           7.1938   -0.6774    1.4731 H       1  UNL1        0.0245
     40 H           6.3739   -0.5697   -0.0894 H       1  UNL1        0.0245
     41 H           7.7700   -1.6356    0.0987 H       1  UNL1        0.0245
     42 H           6.9696   -2.8235    2.8992 H       1  UNL1        0.0245
     43 H           7.5766   -3.7645    1.5253 H       1  UNL1        0.0245
     44 H           6.0297   -4.1880    2.2692 H       1  UNL1        0.0245
@<TRIPOS>BOND
     1     1     2    1
     2     2     3   ar
     3     3     4   ar
     4     4     5   ar
     5     5     6   ar
     6     6     7   ar
     7     2     7   ar
     8     5     8    1
     9     8     9    1
    10     9    10    1
    11    10    11    1
    12     1    12    1
    13    12    13    1
    14    13    14    1
    15    13    15    1
    16    15    16    1
    17    16    17    1
    18    17    18    1
    19    17    19    1
    20     3    20    1
    21     4    21    1
    22     6    22    1
    23     7    23    1
    24     8    24    1
    25     8    25    1
    26     9    26    1
    27     9    27    1
    28    11    28    1
    29    11    29    1
    30    11    30    1
    31    12    31    1
    32    12    32    1
    33    13    33    1
    34    14    34    1
    35    15    35    1
    36    15    36    1
    37    16    37    1
    38    17    38    1
    39    18    39    1
    40    18    40    1
    41    18    41    1
    42    19    42    1
    43    19    43    1
    44    19    44    1
