@<TRIPOS>MOLECULE
*****
 41 44 0 0 0
SMALL
GASTEIGER

@<TRIPOS>ATOM
      1 O           1.1347    0.0278   -0.3975 O.2     1  UNL1       -0.2916
      2 C           2.3082   -0.0054   -0.0594 C.2     1  UNL1        0.1702
      3 C           3.0292    1.2438    0.2447 C.ar    1  UNL1        0.0461
      4 C           2.6821    2.5671    0.0625 C.ar    1  UNL1        0.0106
      5 C           1.5465    3.1541   -0.4966 C.ar    1  UNL1       -0.0519
      6 C           1.4842    4.5571   -0.5370 C.ar    1  UNL1       -0.0611
      7 C           2.5423    5.3359   -0.0237 C.ar    1  UNL1       -0.0598
      8 C           3.6766    4.7221    0.5368 C.ar    1  UNL1       -0.0376
      9 C           3.7219    3.3229    0.5672 C.ar    1  UNL1        0.0497
     10 N           4.6961    2.5190    1.0606 N.ar    1  UNL1       -0.3462
     11 C           5.9554    2.9031    1.6987 C.3     1  UNL1        0.0121
     12 C           4.2663    1.2495    0.8568 C.ar    1  UNL1        0.0300
     13 C           4.9581   -0.0188    1.2683 C.3     1  UNL1       -0.0109
     14 C           4.5485   -1.1459    0.3068 C.3     1  UNL1       -0.0362
     15 C           3.0041   -1.3348    0.2095 C.3     1  UNL1        0.0405
     16 C           2.6726   -2.3522   -0.9060 C.3     1  UNL1        0.0342
     17 N           3.3047   -3.6606   -0.6892 N.ar    1  UNL1       -0.3338
     18 C           4.2560   -4.1971   -1.4756 C.ar    1  UNL1        0.0243
     19 C           4.5847   -5.4358   -0.9737 C.ar    1  UNL1        0.0457
     20 N           3.8367   -5.6849    0.1184 N.ar    1  UNL1       -0.2409
     21 C           3.0657   -4.5880    0.2704 C.ar    1  UNL1        0.1065
     22 C           2.0501   -4.4724    1.3646 C.3     1  UNL1       -0.0063
     23 H           0.7352    2.5569   -0.8899 H       1  UNL1        0.0624
     24 H           0.6173    5.0438   -0.9645 H       1  UNL1        0.0618
     25 H           2.4799    6.4157   -0.0603 H       1  UNL1        0.0618
     26 H           4.4778    5.3319    0.9283 H       1  UNL1        0.0638
     27 H           6.0691    4.0029    1.7556 H       1  UNL1        0.0456
     28 H           6.8081    2.4952    1.1167 H       1  UNL1        0.0456
     29 H           5.9888    2.4946    2.7305 H       1  UNL1        0.0456
     30 H           4.6537   -0.2736    2.3056 H       1  UNL1        0.0328
     31 H           6.0609    0.1060    1.2364 H       1  UNL1        0.0328
     32 H           5.0372   -2.0943    0.6171 H       1  UNL1        0.0276
     33 H           4.9369   -0.8755   -0.7015 H       1  UNL1        0.0276
     34 H           2.6086   -1.6990    1.1736 H       1  UNL1        0.0398
     35 H           3.0302   -1.9263   -1.8708 H       1  UNL1        0.0499
     36 H           1.5741   -2.4975   -0.9935 H       1  UNL1        0.0499
     37 H           4.6822   -3.7243   -2.3512 H       1  UNL1        0.0825
     38 H           5.3181   -6.1184   -1.3812 H       1  UNL1        0.0845
     39 H           2.0342   -5.4057    1.9660 H       1  UNL1        0.0307
     40 H           1.0430   -4.3145    0.9262 H       1  UNL1        0.0307
     41 H           2.2987   -3.6433    2.0516 H       1  UNL1        0.0307
@<TRIPOS>BOND
     1     1     2    2
     2     2     3    1
     3     3     4   ar
     4     4     5   ar
     5     5     6   ar
     6     6     7   ar
     7     7     8   ar
     8     8     9   ar
     9     4     9   ar
    10     9    10   ar
    11    10    11    1
    12    10    12   ar
    13     3    12   ar
    14    12    13    1
    15    13    14    1
    16    14    15    1
    17     2    15    1
    18    15    16    1
    19    16    17    1
    20    17    18   ar
    21    18    19   ar
    22    19    20   ar
    23    20    21   ar
    24    17    21   ar
    25    21    22    1
    26     5    23    1
    27     6    24    1
    28     7    25    1
    29     8    26    1
    30    11    27    1
    31    11    28    1
    32    11    29    1
    33    13    30    1
    34    13    31    1
    35    14    32    1
    36    14    33    1
    37    15    34    1
    38    16    35    1
    39    16    36    1
    40    18    37    1
    41    19    38    1
    42    22    39    1
    43    22    40    1
    44    22    41    1
