@<TRIPOS>MOLECULE
*****
 30 31 0 0 0
SMALL
GASTEIGER

@<TRIPOS>ATOM
      1 O           2.5314    2.2441    0.7334 O.2     1  UNL11      -0.2507
      2 C           2.7042    1.0703    0.4790 C.2     1  UNL11       0.3091
      3 O           2.4699    0.5636   -0.7026 O.3     1  UNL11      -0.4804
      4 C           3.2384    0.0705    1.4833 C.3     1  UNL11       0.0716
      5 C           4.6842   -0.3138    1.1741 C.ar    1  UNL11      -0.0156
      6 C           5.6999    0.4269    1.7864 C.ar    1  UNL11      -0.0563
      7 C           7.0388    0.1755    1.5004 C.ar    1  UNL11      -0.0614
      8 C           7.3778   -0.8131    0.5834 C.ar    1  UNL11      -0.0600
      9 C           6.3774   -1.5554   -0.0370 C.ar    1  UNL11      -0.0403
     10 C           5.0325   -1.3322    0.2654 C.ar    1  UNL11       0.0351
     11 N           4.1075   -2.0995   -0.3995 N.pl3   1  UNL11      -0.3120
     12 C           3.0628   -2.8911    0.0259 C.ar    1  UNL11       0.0684
     13 C           3.0091   -3.4935    1.2983 C.ar    1  UNL11       0.0635
     14 CL          4.2775   -3.3524    2.4734 Cl      1  UNL11      -0.0816
     15 C           1.9153   -4.2836    1.6522 C.ar    1  UNL11      -0.0415
     16 C           0.8759   -4.4960    0.7524 C.ar    1  UNL11      -0.0589
     17 C           0.9325   -3.9277   -0.5155 C.ar    1  UNL11      -0.0415
     18 C           2.0210   -3.1379   -0.8796 C.ar    1  UNL11       0.0635
     19 CL          2.0398   -2.4573   -2.4749 Cl      1  UNL11      -0.0816
     20 H           2.7658   -0.3661   -0.6836 H       1  UNL11       0.2951
     21 H           2.5852   -0.7998    1.5125 H       1  UNL11       0.0427
     22 H           3.1818    0.5132    2.4808 H       1  UNL11       0.0427
     23 H           5.4492    1.2218    2.4852 H       1  UNL11       0.0621
     24 H           7.8179    0.7610    1.9826 H       1  UNL11       0.0618
     25 H           8.4222   -1.0039    0.3490 H       1  UNL11       0.0618
     26 H           6.6547   -2.3257   -0.7535 H       1  UNL11       0.0636
     27 H           4.3012   -2.1978   -1.3912 H       1  UNL11       0.1522
     28 H           1.8761   -4.7472    2.6353 H       1  UNL11       0.0633
     29 H           0.0274   -5.1144    1.0352 H       1  UNL11       0.0618
     30 H           0.1250   -4.1029   -1.2228 H       1  UNL11       0.0633
@<TRIPOS>BOND
     1     1     2    2
     2     2     3    1
     3     2     4    1
     4     4     5    1
     5     5     6   ar
     6     6     7   ar
     7     7     8   ar
     8     8     9   ar
     9     9    10   ar
    10     5    10   ar
    11    10    11    1
    12    11    12    1
    13    12    13   ar
    14    13    14    1
    15    13    15   ar
    16    15    16   ar
    17    16    17   ar
    18    17    18   ar
    19    12    18   ar
    20    18    19    1
    21     3    20    1
    22     4    21    1
    23     4    22    1
    24     6    23    1
    25     7    24    1
    26     8    25    1
    27     9    26    1
    28    11    27    1
    29    15    28    1
    30    16    29    1
    31    17    30    1
