@<TRIPOS>MOLECULE
*****
 33 33 0 0 0
SMALL
GASTEIGER

@<TRIPOS>ATOM
      1 C          -2.9059   -0.5542   -0.2952 C.3     1  UNL1       -0.0624
      2 C          -1.3695   -0.4665   -0.1733 C.3     1  UNL1       -0.0427
      3 C          -0.9840    0.3613    1.0734 C.3     1  UNL1       -0.0624
      4 C          -0.7648    0.1367   -1.4655 C.3     1  UNL1       -0.0253
      5 C           0.7573    0.1379   -1.4711 C.ar    1  UNL1       -0.0471
      6 C           1.4660    1.3193   -1.2476 C.ar    1  UNL1       -0.0583
      7 C           2.8594    1.3157   -1.2507 C.ar    1  UNL1       -0.0575
      8 C           3.5637    0.1312   -1.4806 C.ar    1  UNL1       -0.0339
      9 C           2.8515   -1.0508   -1.7026 C.ar    1  UNL1       -0.0575
     10 C           1.4584   -1.0466   -1.6999 C.ar    1  UNL1       -0.0583
     11 C           5.0902    0.1329   -1.4793 C.3     1  UNL1        0.0784
     12 H           5.4385    1.1688   -1.4466 H       1  UNL1        0.0459
     13 C           5.6494   -0.5645   -0.2202 C.3     1  UNL1       -0.0482
     14 C           5.6403   -0.4892   -2.7559 C.2     1  UNL1        0.3119
     15 O           6.0877   -1.6157   -2.8311 O.2     1  UNL1       -0.2503
     16 O           5.4851    0.2679   -3.8103 O.3     1  UNL1       -0.4802
     17 H          -3.3369   -1.0081    0.6002 H       1  UNL1        0.0232
     18 H          -3.1890   -1.1681   -1.1535 H       1  UNL1        0.0232
     19 H          -3.3443    0.4386   -0.4226 H       1  UNL1        0.0232
     20 H          -0.9827   -1.4809   -0.0460 H       1  UNL1        0.0299
     21 H          -1.3232    1.3953    0.9747 H       1  UNL1        0.0232
     22 H           0.0983    0.3657    1.2196 H       1  UNL1        0.0232
     23 H          -1.4386   -0.0646    1.9709 H       1  UNL1        0.0232
     24 H          -1.1377    1.1551   -1.6030 H       1  UNL1        0.0316
     25 H          -1.1139   -0.4385   -2.3270 H       1  UNL1        0.0316
     26 H           0.9331    2.2496   -1.0647 H       1  UNL1        0.0620
     27 H           3.3933    2.2457   -1.0697 H       1  UNL1        0.0621
     28 H           3.3805   -1.9846   -1.8805 H       1  UNL1        0.0621
     29 H           0.9190   -1.9745   -1.8756 H       1  UNL1        0.0620
     30 H           5.2845   -0.0693    0.6824 H       1  UNL1        0.0241
     31 H           6.7412   -0.5241   -0.2142 H       1  UNL1        0.0241
     32 H           5.3432   -1.6127   -0.1834 H       1  UNL1        0.0241
     33 H           5.0309    1.0790   -3.5250 H       1  UNL1        0.2951
@<TRIPOS>BOND
     1     1     2    1
     2     2     3    1
     3     2     4    1
     4     4     5    1
     5     5     6   ar
     6     6     7   ar
     7     7     8   ar
     8     8     9   ar
     9     9    10   ar
    10     5    10   ar
    11     8    11    1
    12    11    12    1
    13    11    13    1
    14    11    14    1
    15    14    15    2
    16    14    16    1
    17     1    17    1
    18     1    18    1
    19     1    19    1
    20     2    20    1
    21     3    21    1
    22     3    22    1
    23     3    23    1
    24     4    24    1
    25     4    25    1
    26     6    26    1
    27     7    27    1
    28     9    28    1
    29    10    29    1
    30    13    30    1
    31    13    31    1
    32    13    32    1
    33    16    33    1
