@<TRIPOS>MOLECULE
Linezolid
 44 46 0 0 0
SMALL
GASTEIGER

@<TRIPOS>ATOM
      1 C          -3.7351    3.0544    0.2389 C.3     1  UNL1        0.0121
      2 C          -2.3602    2.4272    0.2730 C.2     1  UNL1        0.2100
      3 O          -1.3522    3.0478    0.0014 O.2     1  UNL1       -0.2761
      4 N          -2.3288    1.1387    0.6752 N.am    1  UNL1       -0.3120
      5 C          -1.1063    0.3273    0.7356 C.3     1  UNL1        0.0503
      6 C          -0.2483    0.6308    1.9803 C.3     1  UNL1        0.1361
      7 H           0.1424    1.6522    1.9467 H       1  UNL1        0.0766
      8 C          -0.9762    0.3738    3.3044 C.3     1  UNL1        0.0616
      9 N          -0.1422   -0.6278    3.9477 N.am    1  UNL1       -0.2336
     10 C          -0.4997   -1.1830    5.2193 C.ar    1  UNL1        0.0424
     11 C          -0.5764   -2.5665    5.3888 C.ar    1  UNL1       -0.0382
     12 C          -0.9403   -3.1068    6.6204 C.ar    1  UNL1       -0.0361
     13 C          -1.2443   -2.2730    7.7020 C.ar    1  UNL1        0.0656
     14 N          -1.6166   -2.8092    8.9147 N.pl3   1  UNL1       -0.3233
     15 C          -2.9708   -2.5591    9.4367 C.3     1  UNL1        0.0358
     16 C          -2.9687   -2.6036   10.9789 C.3     1  UNL1        0.0634
     17 O          -2.3867   -3.8580   11.4164 O.3     1  UNL1       -0.3767
     18 C          -1.0235   -4.0630   10.9663 C.3     1  UNL1        0.0634
     19 C          -0.9881   -4.0400    9.4231 C.3     1  UNL1        0.0358
     20 C          -1.1631   -0.8848    7.5263 C.ar    1  UNL1        0.1461
     21 F          -1.4199   -0.0407    8.5448 F       1  UNL1       -0.2035
     22 C          -0.7925   -0.3453    6.2964 C.ar    1  UNL1       -0.0031
     23 C           0.9156   -0.9857    3.1904 C.2     1  UNL1        0.4077
     24 O           1.7509   -1.8164    3.4830 O.2     1  UNL1       -0.2259
     25 O           0.8582   -0.2993    2.0295 O.3     1  UNL1       -0.4436
     26 H          -3.6720    4.0994   -0.0737 H       1  UNL1        0.0322
     27 H          -4.1950    3.0134    1.2289 H       1  UNL1        0.0322
     28 H          -4.3778    2.5184   -0.4632 H       1  UNL1        0.0322
     29 H          -3.1990    0.6745    0.8862 H       1  UNL1        0.1488
     30 H          -0.5117    0.5124   -0.1637 H       1  UNL1        0.0499
     31 H          -1.3924   -0.7279    0.7434 H       1  UNL1        0.0499
     32 H          -1.9817   -0.0252    3.1468 H       1  UNL1        0.0507
     33 H          -1.0139    1.2869    3.9039 H       1  UNL1        0.0507
     34 H          -0.3579   -3.2334    4.5578 H       1  UNL1        0.0637
     35 H          -1.0016   -4.1875    6.7214 H       1  UNL1        0.0637
     36 H          -3.6495   -3.3284    9.0579 H       1  UNL1        0.0486
     37 H          -3.3410   -1.5850    9.1071 H       1  UNL1        0.0486
     38 H          -3.9916   -2.5341   11.3583 H       1  UNL1        0.0575
     39 H          -2.3781   -1.7741   11.3789 H       1  UNL1        0.0575
     40 H          -0.6678   -5.0281   11.3366 H       1  UNL1        0.0575
     41 H          -0.3908   -3.2668   11.3695 H       1  UNL1        0.0575
     42 H          -1.5257   -4.9112    9.0383 H       1  UNL1        0.0486
     43 H           0.0526   -4.0948    9.0912 H       1  UNL1        0.0486
     44 H          -0.7274    0.7343    6.1863 H       1  UNL1        0.0665
@<TRIPOS>BOND
     1     1     2    1
     2     2     3    2
     3     2     4   am
     4     4     5    1
     5     5     6    1
     6     6     7    1
     7     6     8    1
     8     8     9    1
     9     9    10    1
    10    10    11   ar
    11    11    12   ar
    12    12    13   ar
    13    13    14    1
    14    14    15    1
    15    15    16    1
    16    16    17    1
    17    17    18    1
    18    18    19    1
    19    14    19    1
    20    13    20   ar
    21    20    21    1
    22    20    22   ar
    23    10    22   ar
    24     9    23   am
    25    23    24    2
    26    23    25    1
    27     6    25    1
    28     1    26    1
    29     1    27    1
    30     1    28    1
    31     4    29    1
    32     5    30    1
    33     5    31    1
    34     8    32    1
    35     8    33    1
    36    11    34    1
    37    12    35    1
    38    15    36    1
    39    15    37    1
    40    16    38    1
    41    16    39    1
    42    18    40    1
    43    18    41    1
    44    19    42    1
    45    19    43    1
    46    22    44    1
