@<TRIPOS>MOLECULE
Salbutamol
 38 38 0 0 0
SMALL
GASTEIGER

@<TRIPOS>ATOM
      1 C          -3.4476   -0.2077   -4.5758 C.3     1  UNL1       -0.0473
      2 C          -2.9548   -0.5404   -3.1483 C.3     1  UNL1        0.0108
      3 C          -4.1439   -1.0974   -2.3273 C.3     1  UNL1       -0.0473
      4 C          -1.8326   -1.6042   -3.2467 C.3     1  UNL1       -0.0473
      5 N          -2.4543    0.7285   -2.5558 N.3     1  UNL1       -0.3086
      6 C          -1.8290    0.6524   -1.2123 C.3     1  UNL1        0.0266
      7 C          -1.3898    2.0578   -0.7570 C.3     1  UNL1        0.0926
      8 O          -0.5303    2.6112   -1.7509 O.3     1  UNL1       -0.3859
      9 C          -0.7112    2.0178    0.6040 C.ar    1  UNL1       -0.0174
     10 C           0.6794    1.9812    0.7374 C.ar    1  UNL1       -0.0526
     11 C           1.2600    1.9516    2.0016 C.ar    1  UNL1       -0.0195
     12 C           0.4593    1.9340    3.1422 C.ar    1  UNL1        0.1222
     13 O           1.0587    1.9202    4.3670 O.3     1  UNL1       -0.5064
     14 C          -0.9352    1.9371    3.0206 C.ar    1  UNL1        0.0195
     15 C          -1.8371    1.8850    4.2470 C.3     1  UNL1        0.0727
     16 O          -2.9717    1.0466    4.0068 O.3     1  UNL1       -0.3903
     17 C          -1.5066    1.9986    1.7477 C.ar    1  UNL1       -0.0472
     18 H          -3.8388   -1.0988   -5.0730 H       1  UNL1        0.0247
     19 H          -2.6311    0.1887   -5.1851 H       1  UNL1        0.0247
     20 H          -4.2431    0.5414   -4.5484 H       1  UNL1        0.0247
     21 H          -4.5788   -1.9697   -2.8215 H       1  UNL1        0.0247
     22 H          -4.9279   -0.3436   -2.2201 H       1  UNL1        0.0247
     23 H          -3.8288   -1.4067   -1.3284 H       1  UNL1        0.0247
     24 H          -2.1813   -2.4828   -3.7950 H       1  UNL1        0.0247
     25 H          -1.5133   -1.9405   -2.2577 H       1  UNL1        0.0247
     26 H          -0.9616   -1.2019   -3.7702 H       1  UNL1        0.0247
     27 H          -3.2080    1.4132   -2.5407 H       1  UNL1        0.1225
     28 H          -0.9539   -0.0020   -1.2376 H       1  UNL1        0.0453
     29 H          -2.5451    0.2567   -0.4876 H       1  UNL1        0.0453
     30 H          -2.2810    2.6895   -0.6965 H       1  UNL1        0.0656
     31 H          -0.8531    2.2652   -2.6005 H       1  UNL1        0.2103
     32 H           1.3220    1.9834   -0.1395 H       1  UNL1        0.0622
     33 H           2.3435    1.9397    2.0916 H       1  UNL1        0.0654
     34 H           2.0234    1.9650    4.2485 H       1  UNL1        0.2921
     35 H          -2.1798    2.8926    4.4961 H       1  UNL1        0.0608
     36 H          -1.2937    1.4891    5.1091 H       1  UNL1        0.0608
     37 H          -3.5117    1.0283    4.8137 H       1  UNL1        0.2098
     38 H          -2.5889    2.0206    1.6421 H       1  UNL1        0.0626
@<TRIPOS>BOND
     1     1     2    1
     2     2     3    1
     3     2     4    1
     4     2     5    1
     5     5     6    1
     6     6     7    1
     7     7     8    1
     8     7     9    1
     9     9    10   ar
    10    10    11   ar
    11    11    12   ar
    12    12    13    1
    13    12    14   ar
    14    14    15    1
    15    15    16    1
    16    14    17   ar
    17     9    17   ar
    18     1    18    1
    19     1    19    1
    20     1    20    1
    21     3    21    1
    22     3    22    1
    23     3    23    1
    24     4    24    1
    25     4    25    1
    26     4    26    1
    27     5    27    1
    28     6    28    1
    29     6    29    1
    30     7    30    1
    31     8    31    1
    32    10    32    1
    33    11    33    1
    34    13    34    1
    35    15    35    1
    36    15    36    1
    37    16    37    1
    38    17    38    1
