@<TRIPOS>MOLECULE
*****
 37 39 0 0 0
SMALL
GASTEIGER

@<TRIPOS>ATOM
      1 C           4.7956    0.8325    3.3193 C.3     1  UNL1        0.0817
      2 O           4.4245    1.0411    1.9364 O.3     1  UNL1       -0.4666
      3 C           5.4039    1.0954    1.0056 C.2     1  UNL1        0.3289
      4 O           6.5931    1.0377    1.2582 O.2     1  UNL1       -0.2487
      5 C           4.8552    1.3728   -0.3867 C.3     1  UNL1        0.1355
      6 H           3.7693    1.4027   -0.2742 H       1  UNL1        0.0630
      7 C           5.2590    0.2155   -1.3069 C.ar    1  UNL1       -0.0012
      8 C           6.5720    0.1498   -1.7889 C.ar    1  UNL1       -0.0552
      9 C           6.9739   -0.8881   -2.6260 C.ar    1  UNL1       -0.0614
     10 C           6.0672   -1.8789   -2.9898 C.ar    1  UNL1       -0.0604
     11 C           4.7603   -1.8303   -2.5128 C.ar    1  UNL1       -0.0431
     12 C           4.3537   -0.7921   -1.6745 C.ar    1  UNL1        0.0462
     13 CL          2.7132   -0.8052   -1.1147 Cl      1  UNL1       -0.0832
     14 N           5.2661    2.7102   -0.9154 N.3     1  UNL1       -0.2817
     15 C           4.9487    3.8350    0.0145 C.3     1  UNL1        0.0048
     16 C           5.6235    5.1444   -0.4540 C.3     1  UNL1       -0.0083
     17 C           5.4251    5.3613   -1.9258 C.ar    1  UNL1       -0.0046
     18 C           5.0514    4.3476   -2.7581 C.ar    1  UNL1       -0.0231
     19 C           4.9813    4.7263   -4.1279 C.ar    1  UNL1       -0.0501
     20 C           5.3320    6.0412   -4.3130 C.ar    1  UNL1       -0.0238
     21 S           5.7570    6.8220   -2.8059 S.2     1  UNL1       -0.1012
     22 C           4.7091    2.9628   -2.2784 C.3     1  UNL1        0.0259
     23 H           3.8899    0.8103    3.9305 H       1  UNL1        0.0661
     24 H           5.4419    1.6506    3.6498 H       1  UNL1        0.0661
     25 H           5.3256   -0.1196    3.4133 H       1  UNL1        0.0661
     26 H           7.2927    0.9156   -1.5101 H       1  UNL1        0.0621
     27 H           7.9967   -0.9248   -2.9933 H       1  UNL1        0.0618
     28 H           6.3795   -2.6907   -3.6422 H       1  UNL1        0.0618
     29 H           4.0554   -2.6086   -2.7956 H       1  UNL1        0.0632
     30 H           5.3048    3.6206    1.0251 H       1  UNL1        0.0430
     31 H           3.8646    3.9762    0.0559 H       1  UNL1        0.0430
     32 H           6.6932    5.0893   -0.2388 H       1  UNL1        0.0331
     33 H           5.2219    5.9854    0.1156 H       1  UNL1        0.0331
     34 H           4.6872    4.0487   -4.9229 H       1  UNL1        0.0626
     35 H           5.3812    6.6239   -5.2246 H       1  UNL1        0.0693
     36 H           5.1027    2.2231   -2.9802 H       1  UNL1        0.0476
     37 H           3.6218    2.8469   -2.2454 H       1  UNL1        0.0476
@<TRIPOS>BOND
     1     1     2    1
     2     2     3    1
     3     3     4    2
     4     5     7    1
     5     7     8   ar
     6     8     9   ar
     7     9    10   ar
     8    10    11   ar
     9    11    12   ar
    10     7    12   ar
    11    12    13    1
    12     5    14    1
    13    14    15    1
    14    15    16    1
    15    16    17    1
    16    17    18   ar
    17    18    19   ar
    18    19    20   ar
    19    20    21   ar
    20    17    21   ar
    21    18    22    1
    22    14    22    1
    23     5     6    1
    24     5     3    1
    25     1    23    1
    26     1    24    1
    27     1    25    1
    28     8    26    1
    29     9    27    1
    30    10    28    1
    31    11    29    1
    32    15    30    1
    33    15    31    1
    34    16    32    1
    35    16    33    1
    36    19    34    1
    37    20    35    1
    38    22    36    1
    39    22    37    1
