@<TRIPOS>MOLECULE
*****
 43 45 0 0 0
SMALL
GASTEIGER

@<TRIPOS>ATOM
      1 C           2.0636    1.2091    0.4652 C.3     1  UNL1       -0.0348
      2 C           3.3249    0.4196    0.1534 C.ar    1  UNL1        0.0095
      3 C           4.5291    1.0841   -0.0737 C.ar    1  UNL1        0.0343
      4 N           5.6819    0.4424   -0.3566 N.ar    1  UNL1       -0.2582
      5 C           5.6673   -0.9104   -0.4027 C.ar    1  UNL1        0.0603
      6 C           4.5037   -1.6659   -0.1791 C.ar    1  UNL1        0.0136
      7 C           3.3112   -0.9762    0.0831 C.ar    1  UNL1        0.1290
      8 O           2.1238   -1.6555    0.2768 O.3     1  UNL1       -0.4945
      9 C           1.3133   -2.0064   -0.8662 C.3     1  UNL1        0.0788
     10 C           4.5289   -3.1917   -0.2285 C.3     1  UNL1       -0.0345
     11 C           7.0143   -1.5402   -0.7265 C.3     1  UNL1        0.0734
     12 S           8.0800   -1.6306    0.7366 S.O     1  UNL1        0.0954
     13 O           7.3149   -2.3619    1.7973 O.2     1  UNL1       -0.2488
     14 C           9.1685   -1.6656    0.5274 C.ar    1  UNL1        0.1981
     15 N           9.8923   -2.4615    0.1645 N.ar    1  UNL1       -0.2200
     16 C          11.0801   -1.8263    0.0890 C.ar    1  UNL1        0.0903
     17 C          10.9574   -0.5276    0.4553 C.ar    1  UNL1        0.0704
     18 N           9.6688   -0.3847    0.7577 N.ar    1  UNL1       -0.3309
     19 C          12.0068    0.3800    0.4679 C.ar    1  UNL1        0.0055
     20 C          13.2639   -0.0936    0.0782 C.ar    1  UNL1        0.1222
     21 C          13.4180   -1.4417   -0.3021 C.ar    1  UNL1       -0.0178
     22 C          12.3236   -2.3159   -0.2988 C.ar    1  UNL1       -0.0308
     23 O          14.3172    0.8040    0.0810 O.3     1  UNL1       -0.4950
     24 C          15.6688    0.4512   -0.2944 C.3     1  UNL1        0.0788
     25 H           2.2968    2.2534    0.6841 H       1  UNL1        0.0279
     26 H           1.5535    0.7878    1.3345 H       1  UNL1        0.0279
     27 H           1.3784    1.1817   -0.3843 H       1  UNL1        0.0279
     28 H           4.5919    2.1698   -0.0360 H       1  UNL1        0.0833
     29 H           0.4207   -2.5330   -0.5186 H       1  UNL1        0.0660
     30 H           1.8854   -2.6560   -1.5339 H       1  UNL1        0.0660
     31 H           1.0192   -1.0971   -1.3971 H       1  UNL1        0.0660
     32 H           5.3985   -3.5865    0.2997 H       1  UNL1        0.0279
     33 H           4.5664   -3.5359   -1.2640 H       1  UNL1        0.0279
     34 H           3.6476   -3.6295    0.2436 H       1  UNL1        0.0279
     35 H           7.5336   -0.9345   -1.4744 H       1  UNL1        0.0470
     36 H           6.9084   -2.5480   -1.1331 H       1  UNL1        0.0470
     37 H           9.1792    0.4354    1.0897 H       1  UNL1        0.1679
     38 H          11.8592    1.4153    0.7652 H       1  UNL1        0.0675
     39 H          14.3872   -1.8260   -0.6063 H       1  UNL1        0.0655
     40 H          12.4428   -3.3552   -0.5943 H       1  UNL1        0.0641
     41 H          16.3011    1.3387   -0.2065 H       1  UNL1        0.0660
     42 H          15.6806    0.0980   -1.3292 H       1  UNL1        0.0660
     43 H          16.0422   -0.3288    0.3749 H       1  UNL1        0.0660
@<TRIPOS>BOND
     1     1     2    1
     2     2     3   ar
     3     3     4   ar
     4     4     5   ar
     5     5     6   ar
     6     6     7   ar
     7     2     7   ar
     8     7     8    1
     9     8     9    1
    10     6    10    1
    11     5    11    1
    12    11    12    1
    13    12    13    2
    14    12    14    1
    15    14    15   ar
    16    15    16   ar
    17    16    17   ar
    18    17    18   ar
    19    14    18   ar
    20    17    19   ar
    21    19    20   ar
    22    20    21   ar
    23    21    22   ar
    24    16    22   ar
    25    20    23    1
    26    23    24    1
    27     1    25    1
    28     1    26    1
    29     1    27    1
    30     3    28    1
    31     9    29    1
    32     9    30    1
    33     9    31    1
    34    10    32    1
    35    10    33    1
    36    10    34    1
    37    11    35    1
    38    11    36    1
    39    18    37    1
    40    19    38    1
    41    21    39    1
    42    22    40    1
    43    24    41    1
    44    24    42    1
    45    24    43    1
