@<TRIPOS>MOLECULE
*****
 43 45 0 0 0
SMALL
GASTEIGER

@<TRIPOS>ATOM
      1 F           1.5814   -0.6512   -1.7536 F       1  UNL1       -0.2025
      2 C           2.5984   -0.2981   -0.9468 C.ar    1  UNL1        0.1588
      3 C           3.2316    0.9276   -1.1428 C.ar    1  UNL1       -0.0176
      4 C           4.2898    1.3174   -0.3172 C.ar    1  UNL1       -0.0078
      5 C           4.7048    0.4568    0.7075 C.ar    1  UNL1        0.1295
      6 F           5.7206    0.7955    1.5221 F       1  UNL1       -0.2051
      7 C           4.0727   -0.7703    0.9036 C.ar    1  UNL1        0.0119
      8 C           3.0185   -1.1479    0.0762 C.ar    1  UNL1        0.1611
      9 F           2.4137   -2.3342    0.2714 F       1  UNL1       -0.2024
     10 C           4.9615    2.6671   -0.5526 C.3     1  UNL1       -0.0092
     11 C           4.0702    3.8583   -0.1297 C.3     1  UNL1        0.0172
     12 H           3.1324    3.8031   -0.6900 H       1  UNL1        0.0466
     13 N           3.7692    3.7754    1.3132 N.3     1  UNL1       -0.3265
     14 C           4.7652    5.2053   -0.4570 C.3     1  UNL1        0.0396
     15 C           3.8473    6.4191   -0.3263 C.2     1  UNL1        0.2175
     16 O           2.6543    6.2847   -0.1307 O.2     1  UNL1       -0.2755
     17 N           4.3848    7.6596   -0.5162 N.am    1  UNL1       -0.2924
     18 C           3.5910    8.8975   -0.3278 C.3     1  UNL1        0.0746
     19 C           4.2703    9.9185    0.5808 C.ar    1  UNL1        0.1512
     20 N           3.8756   11.0467    1.1862 N.ar    1  UNL1       -0.1324
     21 N           4.9058   11.6257    1.9000 N.ar    1  UNL1       -0.1250
     22 C           5.9605   10.8296    1.7215 C.ar    1  UNL1        0.2376
     23 N           5.5835    9.7918    0.9037 N.ar    1  UNL1       -0.3048
     24 C           6.4188    8.6635    0.4781 C.3     1  UNL1        0.0422
     25 C           5.8155    7.9517   -0.7465 C.3     1  UNL1        0.0332
     26 C           7.3348   11.0470    2.3146 C.3     1  UNL1        0.4524
     27 F           8.2553   11.2708    1.3590 F       1  UNL1       -0.1632
     28 F           7.3764   12.1016    3.1497 F       1  UNL1       -0.1632
     29 F           7.7492    9.9777    3.0184 F       1  UNL1       -0.1632
     30 H           2.8945    1.5819   -1.9434 H       1  UNL1        0.0651
     31 H           4.4021   -1.4319    1.7011 H       1  UNL1        0.0676
     32 H           5.1943    2.7552   -1.6168 H       1  UNL1        0.0329
     33 H           5.9173    2.7216   -0.0257 H       1  UNL1        0.0329
     34 H           3.2797    2.9077    1.5222 H       1  UNL1        0.1185
     35 H           3.1503    4.5404    1.5795 H       1  UNL1        0.1185
     36 H           5.1389    5.1746   -1.4835 H       1  UNL1        0.0374
     37 H           5.6294    5.3244    0.2018 H       1  UNL1        0.0374
     38 H           2.6123    8.6574    0.0953 H       1  UNL1        0.0545
     39 H           3.4208    9.3434   -1.3111 H       1  UNL1        0.0545
     40 H           6.4933    7.9547    1.3077 H       1  UNL1        0.0508
     41 H           7.4222    9.0188    0.2291 H       1  UNL1        0.0508
     42 H           6.3940    7.0539   -0.9687 H       1  UNL1        0.0482
     43 H           5.8931    8.6145   -1.6135 H       1  UNL1        0.0482
@<TRIPOS>BOND
     1     1     2    1
     2     2     3   ar
     3     3     4   ar
     4     4     5   ar
     5     5     6    1
     6     5     7   ar
     7     7     8   ar
     8     2     8   ar
     9     8     9    1
    10     4    10    1
    11    10    11    1
    12    11    12    1
    13    11    13    1
    14    11    14    1
    15    14    15    1
    16    15    16    2
    17    15    17   am
    18    17    18    1
    19    18    19    1
    20    19    20   ar
    21    20    21   ar
    22    21    22   ar
    23    22    23   ar
    24    19    23   ar
    25    23    24    1
    26    24    25    1
    27    17    25    1
    28    22    26    1
    29    26    27    1
    30    26    28    1
    31    26    29    1
    32     3    30    1
    33     7    31    1
    34    10    32    1
    35    10    33    1
    36    13    34    1
    37    13    35    1
    38    14    36    1
    39    14    37    1
    40    18    38    1
    41    18    39    1
    42    24    40    1
    43    24    41    1
    44    25    42    1
    45    25    43    1
