@<TRIPOS>MOLECULE
Ibuprofen
 33 33 0 0 0
SMALL
GASTEIGER

@<TRIPOS>ATOM
      1 C           0.7022    0.6888   -0.6728 C.3     1  UNL1       -0.0624
      2 C           2.2076    0.5288   -0.9744 C.3     1  UNL1       -0.0427
      3 C           2.5842   -0.9696   -1.0090 C.3     1  UNL1       -0.0624
      4 C           3.0481    1.3013    0.0725 C.3     1  UNL1       -0.0253
      5 C           4.5351    1.3192   -0.2510 C.ar    1  UNL1       -0.0471
      6 C           5.0247    2.1668   -1.2455 C.ar    1  UNL1       -0.0583
      7 C           6.3838    2.1830   -1.5509 C.ar    1  UNL1       -0.0575
      8 C           7.2725    1.3510   -0.8656 C.ar    1  UNL1       -0.0339
      9 C           8.7599    1.3662   -1.2109 C.3     1  UNL1        0.0784
     10 H           8.9038    1.9805   -2.1037 H       1  UNL1        0.0459
     11 C           9.5850    2.0165   -0.0784 C.3     1  UNL1       -0.0482
     12 C           9.2636   -0.0315   -1.5504 C.2     1  UNL1        0.3119
     13 O          10.1649   -0.5985   -0.9667 O.2     1  UNL1       -0.2503
     14 O           8.6149   -0.5929   -2.5372 O.3     1  UNL1       -0.4802
     15 C           6.7813    0.5075    0.1346 C.ar    1  UNL1       -0.0575
     16 C           5.4220    0.4918    0.4397 C.ar    1  UNL1       -0.0583
     17 H           0.1027    0.1700   -1.4246 H       1  UNL1        0.0232
     18 H           0.4178    1.7436   -0.6848 H       1  UNL1        0.0232
     19 H           0.4550    0.2767    0.3087 H       1  UNL1        0.0232
     20 H           2.4004    0.9551   -1.9622 H       1  UNL1        0.0299
     21 H           2.4341   -1.4317   -0.0303 H       1  UNL1        0.0232
     22 H           3.6294   -1.1031   -1.2966 H       1  UNL1        0.0232
     23 H           1.9686   -1.5022   -1.7376 H       1  UNL1        0.0232
     24 H           2.8877    0.8677    1.0633 H       1  UNL1        0.0316
     25 H           2.6932    2.3337    0.1264 H       1  UNL1        0.0316
     26 H           4.3444    2.8181   -1.7895 H       1  UNL1        0.0620
     27 H           6.7455    2.8505   -2.3297 H       1  UNL1        0.0621
     28 H           9.2205    3.0255    0.1271 H       1  UNL1        0.0241
     29 H          10.6377    2.0864   -0.3624 H       1  UNL1        0.0241
     30 H           9.5146    1.4321    0.8420 H       1  UNL1        0.0241
     31 H           7.8982    0.0125   -2.7957 H       1  UNL1        0.2951
     32 H           7.4578   -0.1477    0.6794 H       1  UNL1        0.0621
     33 H           5.0554   -0.1750    1.2168 H       1  UNL1        0.0620
@<TRIPOS>BOND
     1     1     2    1
     2     2     3    1
     3     2     4    1
     4     4     5    1
     5     5     6   ar
     6     6     7   ar
     7     7     8   ar
     8     8     9    1
     9     9    10    1
    10     9    11    1
    11     9    12    1
    12    12    13    2
    13    12    14    1
    14     8    15   ar
    15    15    16   ar
    16     5    16   ar
    17     1    17    1
    18     1    18    1
    19     1    19    1
    20     2    20    1
    21     3    21    1
    22     3    22    1
    23     3    23    1
    24     4    24    1
    25     4    25    1
    26     6    26    1
    27     7    27    1
    28    11    28    1
    29    11    29    1
    30    11    30    1
    31    14    31    1
    32    15    32    1
    33    16    33    1
