@<TRIPOS>MOLECULE
*****
 39 39 0 0 0
SMALL
GASTEIGER

@<TRIPOS>ATOM
      1 C          -1.4047    1.9657   -0.1110 C.3     1  UNL1       -0.0379
      2 C           0.0782    1.7056    0.1180 C.ar    1  UNL1       -0.0290
      3 C           0.9008    2.7515    0.5402 C.ar    1  UNL1       -0.0571
      4 C           2.2569    2.5338    0.7639 C.ar    1  UNL1       -0.0611
      5 C           2.8014    1.2684    0.5670 C.ar    1  UNL1       -0.0571
      6 C           1.9950    0.2102    0.1440 C.ar    1  UNL1       -0.0290
      7 C           2.6165   -1.1645   -0.0641 C.3     1  UNL1       -0.0379
      8 C           0.6280    0.4310   -0.0786 C.ar    1  UNL1        0.0393
      9 N          -0.2116   -0.6422   -0.5146 N.am    1  UNL1       -0.2840
     10 C          -0.7974   -1.5579    0.2854 C.2     1  UNL1        0.2313
     11 O          -0.6248   -1.5690    1.4883 O.2     1  UNL1       -0.2741
     12 C          -1.7052   -2.5517   -0.4184 C.3     1  UNL1        0.0760
     13 N          -3.1490   -2.1924   -0.3856 N.3     1  UNL1       -0.2945
     14 C          -3.4783   -0.9919   -1.2010 C.3     1  UNL1       -0.0035
     15 C          -4.6114   -1.2921   -2.1997 C.3     1  UNL1       -0.0523
     16 C          -3.6990   -2.1765    0.9978 C.3     1  UNL1       -0.0035
     17 C          -5.2386   -2.1875    1.0413 C.3     1  UNL1       -0.0523
     18 H          -1.6582    3.0119    0.0734 H       1  UNL1        0.0278
     19 H          -2.0068    1.3496    0.5609 H       1  UNL1        0.0278
     20 H          -1.6806    1.7285   -1.1408 H       1  UNL1        0.0278
     21 H           0.4870    3.7442    0.7002 H       1  UNL1        0.0621
     22 H           2.8912    3.3526    1.0945 H       1  UNL1        0.0618
     23 H           3.8622    1.1110    0.7470 H       1  UNL1        0.0621
     24 H           3.7010   -1.1334    0.0618 H       1  UNL1        0.0278
     25 H           2.4058   -1.5336   -1.0703 H       1  UNL1        0.0278
     26 H           2.2133   -1.8777    0.6584 H       1  UNL1        0.0278
     27 H          -0.4288   -0.6574   -1.4986 H       1  UNL1        0.1549
     28 H          -1.5545   -3.5193    0.0685 H       1  UNL1        0.0522
     29 H          -1.3717   -2.6417   -1.4563 H       1  UNL1        0.0522
     30 H          -2.6075   -0.6826   -1.7849 H       1  UNL1        0.0424
     31 H          -3.7607   -0.1561   -0.5543 H       1  UNL1        0.0424
     32 H          -4.3243   -2.1073   -2.8679 H       1  UNL1        0.0242
     33 H          -4.8176   -0.4087   -2.8076 H       1  UNL1        0.0242
     34 H          -5.5327   -1.5745   -1.6885 H       1  UNL1        0.0242
     35 H          -3.3303   -1.2978    1.5352 H       1  UNL1        0.0424
     36 H          -3.3466   -3.0671    1.5264 H       1  UNL1        0.0424
     37 H          -5.6504   -1.2544    0.6519 H       1  UNL1        0.0242
     38 H          -5.5803   -2.2986    2.0726 H       1  UNL1        0.0242
     39 H          -5.6351   -3.0220    0.4583 H       1  UNL1        0.0242
@<TRIPOS>BOND
     1     1     2    1
     2     2     3   ar
     3     3     4   ar
     4     4     5   ar
     5     5     6   ar
     6     6     7    1
     7     6     8   ar
     8     2     8   ar
     9     8     9    1
    10     9    10   am
    11    10    11    2
    12    10    12    1
    13    12    13    1
    14    13    14    1
    15    14    15    1
    16    13    16    1
    17    16    17    1
    18     1    18    1
    19     1    19    1
    20     1    20    1
    21     3    21    1
    22     4    22    1
    23     5    23    1
    24     7    24    1
    25     7    25    1
    26     7    26    1
    27     9    27    1
    28    12    28    1
    29    12    29    1
    30    14    30    1
    31    14    31    1
    32    15    32    1
    33    15    33    1
    34    15    34    1
    35    16    35    1
    36    16    36    1
    37    17    37    1
    38    17    38    1
    39    17    39    1
