@<TRIPOS>MOLECULE
Naproxen
 31 32 0 0 0
SMALL
GASTEIGER

@<TRIPOS>ATOM
      1 C          -7.1068    0.2126    6.4699 C.3     1  UNL1        0.0788
      2 O          -8.4828    0.6138    6.6636 O.3     1  UNL1       -0.4951
      3 C          -9.5501   -0.2645    6.5967 C.ar    1  UNL1        0.1207
      4 C          -9.3942   -1.6202    6.2876 C.ar    1  UNL1       -0.0194
      5 C         -10.5072   -2.4574    6.2346 C.ar    1  UNL1       -0.0506
      6 C         -11.7815   -1.9496    6.4906 C.ar    1  UNL1       -0.0174
      7 C         -12.8970   -2.7862    6.4410 C.ar    1  UNL1       -0.0501
      8 C         -14.1763   -2.2879    6.7040 C.ar    1  UNL1       -0.0334
      9 C         -15.3646   -3.2560    6.6576 C.3     1  UNL1        0.0784
     10 H         -15.1997   -3.9175    5.8025 H       1  UNL1        0.0459
     11 C         -16.7391   -2.5877    6.4307 C.3     1  UNL1       -0.0482
     12 C         -15.4221   -4.1396    7.8943 C.2     1  UNL1        0.3119
     13 O         -15.8287   -5.2827    7.8695 O.2     1  UNL1       -0.2503
     14 O         -15.1545   -3.5198    9.0145 O.3     1  UNL1       -0.4802
     15 C         -14.3227   -0.9318    7.0227 C.ar    1  UNL1       -0.0572
     16 C         -13.2122   -0.0915    7.0668 C.ar    1  UNL1       -0.0536
     17 C         -11.9393   -0.5952    6.8024 C.ar    1  UNL1       -0.0144
     18 C         -10.8238    0.2418    6.8520 C.ar    1  UNL1       -0.0122
     19 H          -6.4652    1.0904    6.5833 H       1  UNL1        0.0660
     20 H          -6.9843   -0.1997    5.4646 H       1  UNL1        0.0660
     21 H          -6.8358   -0.5354    7.2201 H       1  UNL1        0.0660
     22 H          -8.4131   -2.0399    6.0853 H       1  UNL1        0.0654
     23 H         -10.3742   -3.5096    5.9940 H       1  UNL1        0.0625
     24 H         -12.7688   -3.8403    6.2030 H       1  UNL1        0.0627
     25 H         -17.5060   -3.3492    6.2703 H       1  UNL1        0.0241
     26 H         -16.7135   -1.9420    5.5500 H       1  UNL1        0.0241
     27 H         -17.0366   -1.9916    7.2964 H       1  UNL1        0.0241
     28 H         -14.8637   -2.6199    8.7831 H       1  UNL1        0.2951
     29 H         -15.2992   -0.5098    7.2431 H       1  UNL1        0.0621
     30 H         -13.3445    0.9598    7.3134 H       1  UNL1        0.0624
     31 H         -10.9411    1.2958    7.0935 H       1  UNL1        0.0660
@<TRIPOS>BOND
     1     1     2    1
     2     2     3    1
     3     3     4   ar
     4     4     5   ar
     5     5     6   ar
     6     6     7   ar
     7     7     8   ar
     8     9    11    1
     9     9    12    1
    10    12    13    2
    11    12    14    1
    12     8    15   ar
    13    15    16   ar
    14    16    17   ar
    15     6    17   ar
    16    17    18   ar
    17     3    18   ar
    18     9    10    1
    19     9     8    1
    20     1    19    1
    21     1    20    1
    22     1    21    1
    23     4    22    1
    24     5    23    1
    25     7    24    1
    26    11    25    1
    27    11    26    1
    28    11    27    1
    29    14    28    1
    30    15    29    1
    31    16    30    1
    32    18    31    1
