@<TRIPOS>MOLECULE
Lidocaine
 39 39 0 0 0
SMALL
GASTEIGER

@<TRIPOS>ATOM
      1 C           1.7692   -1.0363    0.5835 C.3     1  UNL1       -0.0523
      2 C           2.3900   -1.2867   -0.8032 C.3     1  UNL1       -0.0035
      3 N           2.8802   -0.0152   -1.3988 N.3     1  UNL1       -0.2945
      4 C           2.0341    0.5401   -2.4901 C.3     1  UNL1       -0.0035
      5 C           0.6372    0.9685   -2.0024 C.3     1  UNL1       -0.0523
      6 C           4.3333   -0.0334   -1.7188 C.3     1  UNL1        0.0760
      7 C           4.7754   -1.0427   -2.7691 C.2     1  UNL1        0.2313
      8 O           4.0354   -1.5214   -3.6060 O.2     1  UNL1       -0.2741
      9 N           6.0961   -1.3223   -2.7439 N.am    1  UNL1       -0.2840
     10 C           6.8041   -2.1367   -3.6855 C.ar    1  UNL1        0.0393
     11 C           7.6788   -1.5244   -4.5948 C.ar    1  UNL1       -0.0290
     12 C           7.8761   -0.0142   -4.5997 C.3     1  UNL1       -0.0379
     13 C           8.3739   -2.3078   -5.5175 C.ar    1  UNL1       -0.0571
     14 C           8.2056   -3.6885   -5.5359 C.ar    1  UNL1       -0.0611
     15 C           7.3452   -4.2970   -4.6275 C.ar    1  UNL1       -0.0571
     16 C           6.6437   -3.5318   -3.6938 C.ar    1  UNL1       -0.0290
     17 C           5.7226   -4.2397   -2.7076 C.3     1  UNL1       -0.0379
     18 H           1.4347   -1.9793    1.0211 H       1  UNL1        0.0242
     19 H           0.9093   -0.3675    0.5181 H       1  UNL1        0.0242
     20 H           2.5042   -0.5882    1.2560 H       1  UNL1        0.0242
     21 H           1.6535   -1.7572   -1.4611 H       1  UNL1        0.0424
     22 H           3.2192   -1.9891   -0.6775 H       1  UNL1        0.0424
     23 H           1.9222   -0.1942   -3.2923 H       1  UNL1        0.0424
     24 H           2.5269    1.4236   -2.9056 H       1  UNL1        0.0424
     25 H           0.0492    0.1054   -1.6841 H       1  UNL1        0.0242
     26 H           0.0958    1.4624   -2.8122 H       1  UNL1        0.0242
     27 H           0.7183    1.6687   -1.1679 H       1  UNL1        0.0242
     28 H           4.8916   -0.2558   -0.8047 H       1  UNL1        0.0522
     29 H           4.6477    0.9527   -2.0715 H       1  UNL1        0.0522
     30 H           6.6719   -0.8315   -2.0781 H       1  UNL1        0.1549
     31 H           8.2577    0.3248   -3.6340 H       1  UNL1        0.0278
     32 H           6.9289    0.4935   -4.7960 H       1  UNL1        0.0278
     33 H           8.5881    0.2917   -5.3694 H       1  UNL1        0.0278
     34 H           9.0506   -1.8440   -6.2313 H       1  UNL1        0.0621
     35 H           8.7477   -4.2925   -6.2593 H       1  UNL1        0.0618
     36 H           7.2242   -5.3774   -4.6506 H       1  UNL1        0.0621
     37 H           5.9660   -5.3021   -2.6370 H       1  UNL1        0.0278
     38 H           4.6826   -4.1517   -3.0287 H       1  UNL1        0.0278
     39 H           5.8146   -3.8127   -1.7067 H       1  UNL1        0.0278
@<TRIPOS>BOND
     1     1     2    1
     2     2     3    1
     3     3     4    1
     4     4     5    1
     5     3     6    1
     6     6     7    1
     7     7     8    2
     8     7     9   am
     9     9    10    1
    10    10    11   ar
    11    11    12    1
    12    11    13   ar
    13    13    14   ar
    14    14    15   ar
    15    15    16   ar
    16    10    16   ar
    17    16    17    1
    18     1    18    1
    19     1    19    1
    20     1    20    1
    21     2    21    1
    22     2    22    1
    23     4    23    1
    24     4    24    1
    25     5    25    1
    26     5    26    1
    27     5    27    1
    28     6    28    1
    29     6    29    1
    30     9    30    1
    31    12    31    1
    32    12    32    1
    33    12    33    1
    34    13    34    1
    35    14    35    1
    36    15    36    1
    37    17    37    1
    38    17    38    1
    39    17    39    1
