@<TRIPOS>MOLECULE
Diclofenac
 30 31 0 0 0
SMALL
GASTEIGER

@<TRIPOS>ATOM
      1 O           3.1041    1.5020    3.4459 O.2     1  UNL1       -0.2507
      2 C           3.5047    0.5864    2.7577 C.2     1  UNL1        0.3091
      3 O           4.2576   -0.3736    3.2282 O.3     1  UNL1       -0.4804
      4 C           3.2312    0.4755    1.2710 C.3     1  UNL1        0.0716
      5 C           4.5076    0.5775    0.4298 C.ar    1  UNL1       -0.0156
      6 C           5.4293    1.5847    0.7402 C.ar    1  UNL1       -0.0563
      7 C           6.6367    1.6857    0.0553 C.ar    1  UNL1       -0.0614
      8 C           6.9420    0.7759   -0.9503 C.ar    1  UNL1       -0.0600
      9 C           6.0286   -0.2193   -1.2839 C.ar    1  UNL1       -0.0403
     10 C           4.8022   -0.3114   -0.6230 C.ar    1  UNL1        0.0351
     11 N           3.9420   -1.2970   -1.0413 N.pl3   1  UNL1       -0.3120
     12 C           2.5982   -1.2861   -1.3430 C.ar    1  UNL1        0.0684
     13 C           1.8603   -2.4555   -1.1117 C.ar    1  UNL1        0.0635
     14 CL          2.6105   -3.8704   -0.4455 Cl      1  UNL1       -0.0816
     15 C           0.4955   -2.5015   -1.3892 C.ar    1  UNL1       -0.0415
     16 C          -0.1479   -1.3862   -1.9154 C.ar    1  UNL1       -0.0589
     17 C           0.5768   -0.2267   -2.1726 C.ar    1  UNL1       -0.0415
     18 C           1.9424   -0.1692   -1.8950 C.ar    1  UNL1        0.0635
     19 CL          2.7652    1.2975   -2.3215 Cl      1  UNL1       -0.0816
     20 H           4.4981   -0.9491    2.4806 H       1  UNL1        0.2951
     21 H           2.5371    1.2641    0.9708 H       1  UNL1        0.0427
     22 H           2.7218   -0.4751    1.1150 H       1  UNL1        0.0427
     23 H           5.2158    2.2964    1.5347 H       1  UNL1        0.0621
     24 H           7.3447    2.4695    0.3139 H       1  UNL1        0.0618
     25 H           7.8880    0.8475   -1.4814 H       1  UNL1        0.0618
     26 H           6.2701   -0.9144   -2.0852 H       1  UNL1        0.0636
     27 H           4.3884   -2.1931   -1.2057 H       1  UNL1        0.1522
     28 H          -0.0704   -3.4096   -1.1947 H       1  UNL1        0.0633
     29 H          -1.2121   -1.4236   -2.1350 H       1  UNL1        0.0618
     30 H           0.0736    0.6360   -2.6032 H       1  UNL1        0.0633
@<TRIPOS>BOND
     1     1     2    2
     2     2     3    1
     3     2     4    1
     4     4     5    1
     5     5     6   ar
     6     6     7   ar
     7     7     8   ar
     8     8     9   ar
     9     9    10   ar
    10     5    10   ar
    11    10    11    1
    12    11    12    1
    13    12    13   ar
    14    13    14    1
    15    13    15   ar
    16    15    16   ar
    17    16    17   ar
    18    17    18   ar
    19    12    18   ar
    20    18    19    1
    21     3    20    1
    22     4    21    1
    23     4    22    1
    24     6    23    1
    25     7    24    1
    26     8    25    1
    27     9    26    1
    28    11    27    1
    29    15    28    1
    30    16    29    1
    31    17    30    1
