@<TRIPOS>MOLECULE
Clopidogrel
 37 39 0 0 0
SMALL
GASTEIGER

@<TRIPOS>ATOM
      1 C           4.9457    1.1374    3.2801 C.3     1  UNL1        0.0817
      2 O           4.4796    1.1487    1.9105 O.3     1  UNL1       -0.4666
      3 C           5.3802    1.3509    0.9228 C.2     1  UNL1        0.3289
      4 O           6.5678    1.5455    1.1047 O.2     1  UNL1       -0.2487
      5 C           4.7404    1.2888   -0.4564 C.3     1  UNL1        0.1355
      6 H           3.6629    1.3148   -0.2806 H       1  UNL1        0.0630
      7 C           5.1424   -0.0389   -1.1066 C.ar    1  UNL1       -0.0012
      8 C           6.4440   -0.1909   -1.5989 C.ar    1  UNL1       -0.0552
      9 C           6.8489   -1.3863   -2.1879 C.ar    1  UNL1       -0.0614
     10 C           5.9561   -2.4487   -2.2896 C.ar    1  UNL1       -0.0604
     11 C           4.6598   -2.3131   -1.8007 C.ar    1  UNL1       -0.0431
     12 C           4.2502   -1.1174   -1.2105 C.ar    1  UNL1        0.0462
     13 CL          2.6228   -1.0277   -0.6201 Cl      1  UNL1       -0.0832
     14 N           5.0641    2.4764   -1.3056 N.3     1  UNL1       -0.2817
     15 C           4.7372    3.7765   -0.6475 C.3     1  UNL1        0.0048
     16 C           5.3305    4.9604   -1.4447 C.3     1  UNL1       -0.0083
     17 C           5.0482    4.8204   -2.9122 C.ar    1  UNL1       -0.0046
     18 S           5.2537    6.0491   -4.1232 S.2     1  UNL1       -0.1012
     19 C           4.7868    4.9247   -5.3799 C.ar    1  UNL1       -0.0238
     20 C           4.5160    3.6761   -4.8759 C.ar    1  UNL1       -0.0501
     21 C           4.6819    3.6279   -3.4635 C.ar    1  UNL1       -0.0231
     22 C           4.4350    2.3810   -2.6574 C.3     1  UNL1        0.0259
     23 H           4.0964    0.9521    3.9425 H       1  UNL1        0.0661
     24 H           5.3949    2.1054    3.5196 H       1  UNL1        0.0661
     25 H           5.6877    0.3434    3.4043 H       1  UNL1        0.0661
     26 H           7.1536    0.6302   -1.5226 H       1  UNL1        0.0621
     27 H           7.8633   -1.4895   -2.5657 H       1  UNL1        0.0618
     28 H           6.2710   -3.3834   -2.7470 H       1  UNL1        0.0618
     29 H           3.9656   -3.1466   -1.8785 H       1  UNL1        0.0632
     30 H           5.1465    3.8170    0.3650 H       1  UNL1        0.0430
     31 H           3.6506    3.8871   -0.5827 H       1  UNL1        0.0430
     32 H           6.4111    4.9897   -1.2864 H       1  UNL1        0.0331
     33 H           4.9219    5.8986   -1.0630 H       1  UNL1        0.0331
     34 H           4.7536    5.2819   -6.4019 H       1  UNL1        0.0693
     35 H           4.2125    2.8225   -5.4732 H       1  UNL1        0.0626
     36 H           4.8361    1.5144   -3.1892 H       1  UNL1        0.0476
     37 H           3.3578    2.2314   -2.5387 H       1  UNL1        0.0476
@<TRIPOS>BOND
     1     1     2    1
     2     2     3    1
     3     3     4    2
     4     5     7    1
     5     7     8   ar
     6     8     9   ar
     7     9    10   ar
     8    10    11   ar
     9    11    12   ar
    10     7    12   ar
    11    12    13    1
    12     5    14    1
    13    14    15    1
    14    15    16    1
    15    16    17    1
    16    17    18   ar
    17    18    19   ar
    18    19    20   ar
    19    20    21   ar
    20    17    21   ar
    21    21    22    1
    22    14    22    1
    23     5     6    1
    24     5     3    1
    25     1    23    1
    26     1    24    1
    27     1    25    1
    28     8    26    1
    29     9    27    1
    30    10    28    1
    31    11    29    1
    32    15    30    1
    33    15    31    1
    34    16    32    1
    35    16    33    1
    36    19    34    1
    37    20    35    1
    38    22    36    1
    39    22    37    1
