@<TRIPOS>MOLECULE
Metoprolol
 44 44 0 0 0
SMALL
GASTEIGER

@<TRIPOS>ATOM
      1 C           1.9498   -1.1240   -1.0277 C.3     1  UNL1        0.0365
      2 O           2.2482   -1.6783    0.2717 O.3     1  UNL1       -0.3826
      3 C           3.2763   -0.9730    1.0043 C.3     1  UNL1        0.0513
      4 C           3.4892   -1.6595    2.3678 C.3     1  UNL1       -0.0042
      5 C           4.2684   -2.9640    2.2622 C.ar    1  UNL1       -0.0450
      6 C           5.5944   -3.0281    2.6966 C.ar    1  UNL1       -0.0550
      7 C           6.3104   -4.2207    2.6084 C.ar    1  UNL1       -0.0197
      8 C           5.7034   -5.3639    2.0824 C.ar    1  UNL1        0.1206
      9 O           6.3772   -6.5661    1.9655 O.3     1  UNL1       -0.4894
     10 C           7.3810   -7.0137    2.9138 C.3     1  UNL1        0.1166
     11 C           6.7399   -7.2409    4.3028 C.3     1  UNL1        0.1015
     12 O           7.7658   -7.5474    5.2495 O.3     1  UNL1       -0.3872
     13 C           5.7045   -8.3869    4.2634 C.3     1  UNL1        0.0254
     14 N           6.3634   -9.7069    4.1159 N.3     1  UNL1       -0.3112
     15 C           5.4376  -10.8011    3.7511 C.3     1  UNL1        0.0021
     16 C           5.0745  -10.7353    2.2503 C.3     1  UNL1       -0.0499
     17 C           6.1058  -12.1526    4.0710 C.3     1  UNL1       -0.0499
     18 C           4.3840   -5.3006    1.6391 C.ar    1  UNL1       -0.0197
     19 C           3.6671   -4.1093    1.7357 C.ar    1  UNL1       -0.0550
     20 H           1.6223   -0.0865   -0.9170 H       1  UNL1        0.0523
     21 H           1.1496   -1.7115   -1.4857 H       1  UNL1        0.0523
     22 H           2.8424   -1.1691   -1.6577 H       1  UNL1        0.0523
     23 H           4.2076   -0.9743    0.4301 H       1  UNL1        0.0563
     24 H           2.9471    0.0580    1.1622 H       1  UNL1        0.0563
     25 H           2.5200   -1.8465    2.8368 H       1  UNL1        0.0335
     26 H           4.0227   -0.9678    3.0239 H       1  UNL1        0.0335
     27 H           6.0792   -2.1457    3.1070 H       1  UNL1        0.0621
     28 H           7.3425   -4.2433    2.9457 H       1  UNL1        0.0654
     29 H           7.8038   -7.9518    2.5431 H       1  UNL1        0.0723
     30 H           8.1827   -6.2741    2.9767 H       1  UNL1        0.0723
     31 H           6.2383   -6.3219    4.6171 H       1  UNL1        0.0640
     32 H           8.1427   -8.4112    5.0006 H       1  UNL1        0.2100
     33 H           5.0188   -8.2045    3.4327 H       1  UNL1        0.0450
     34 H           5.1225   -8.3811    5.1891 H       1  UNL1        0.0450
     35 H           6.8329   -9.9301    4.9915 H       1  UNL1        0.1223
     36 H           4.5251  -10.7226    4.3497 H       1  UNL1        0.0455
     37 H           5.9752  -10.7800    1.6328 H       1  UNL1        0.0245
     38 H           4.5416   -9.8136    2.0094 H       1  UNL1        0.0245
     39 H           4.4293  -11.5728    1.9755 H       1  UNL1        0.0245
     40 H           7.0333  -12.2739    3.5057 H       1  UNL1        0.0245
     41 H           5.4378  -12.9797    3.8192 H       1  UNL1        0.0245
     42 H           6.3399  -12.2199    5.1360 H       1  UNL1        0.0245
     43 H           3.9092   -6.1847    1.2210 H       1  UNL1        0.0654
     44 H           2.6359   -4.0763    1.3923 H       1  UNL1        0.0621
@<TRIPOS>BOND
     1     1     2    1
     2     2     3    1
     3     3     4    1
     4     4     5    1
     5     5     6   ar
     6     6     7   ar
     7     7     8   ar
     8     8     9    1
     9     9    10    1
    10    10    11    1
    11    11    12    1
    12    11    13    1
    13    13    14    1
    14    14    15    1
    15    15    16    1
    16    15    17    1
    17     8    18   ar
    18    18    19   ar
    19     5    19   ar
    20     1    20    1
    21     1    21    1
    22     1    22    1
    23     3    23    1
    24     3    24    1
    25     4    25    1
    26     4    26    1
    27     6    27    1
    28     7    28    1
    29    10    29    1
    30    10    30    1
    31    11    31    1
    32    12    32    1
    33    13    33    1
    34    13    34    1
    35    14    35    1
    36    15    36    1
    37    16    37    1
    38    16    38    1
    39    16    39    1
    40    17    40    1
    41    17    41    1
    42    17    42    1
    43    18    43    1
    44    19    44    1
