@<TRIPOS>MOLECULE
Bimatoprost
 67 68 0 0 0
SMALL
GASTEIGER

@<TRIPOS>ATOM
      1 C          18.8219   -6.9020   -4.0503 C.3     1  UNL1       -0.0495
      2 C          17.3808   -7.2752   -3.6670 C.3     1  UNL1        0.0088
      3 N          16.3922   -6.4653   -4.3857 N.am    1  UNL1       -0.3156
      4 C          15.0575   -6.5976   -4.2277 C.2     1  UNL1        0.2130
      5 O          14.5804   -7.4124   -3.4621 O.2     1  UNL1       -0.2758
      6 C          14.2240   -5.6713   -5.0961 C.3     1  UNL1        0.0242
      7 C          12.7158   -5.7418   -4.7674 C.3     1  UNL1       -0.0414
      8 C          11.8916   -4.8103   -5.6801 C.3     1  UNL1       -0.0343
      9 C          10.4139   -4.8839   -5.3458 C.2     1  UNL1       -0.0879
     10 C           9.5154   -3.9206   -5.5266 C.2     1  UNL1       -0.0876
     11 C           9.7526   -2.5598   -6.1585 C.3     1  UNL1       -0.0290
     12 C           8.8200   -2.3447   -7.3802 C.3     1  UNL1       -0.0029
     13 H           7.7971   -2.4580   -7.0196 H       1  UNL1        0.0335
     14 C           9.1260   -3.3671   -8.5164 C.3     1  UNL1        0.0087
     15 H          10.1029   -3.8111   -8.3033 H       1  UNL1        0.0372
     16 C           8.1372   -4.5162   -8.6510 C.2     1  UNL1       -0.0796
     17 C           6.8134   -4.4709   -8.7961 C.2     1  UNL1       -0.0595
     18 C           5.9085   -3.2518   -8.8396 C.3     1  UNL1        0.0737
     19 H           6.4722   -2.3287   -8.7067 H       1  UNL1        0.0638
     20 O           5.2699   -3.1964  -10.1146 O.3     1  UNL1       -0.3878
     21 C           4.8382   -3.3560   -7.7271 C.3     1  UNL1       -0.0193
     22 C           3.8457   -2.1706   -7.7264 C.3     1  UNL1       -0.0250
     23 C           2.8053   -2.2922   -6.6209 C.ar    1  UNL1       -0.0473
     24 C           2.7735   -1.3722   -5.5697 C.ar    1  UNL1       -0.0586
     25 C           1.8142   -1.4857   -4.5643 C.ar    1  UNL1       -0.0615
     26 C           0.8826   -2.5211   -4.6010 C.ar    1  UNL1       -0.0617
     27 C           0.9077   -3.4404   -5.6471 C.ar    1  UNL1       -0.0615
     28 C           1.8626   -3.3235   -6.6555 C.ar    1  UNL1       -0.0586
     29 C           9.2866   -2.5609   -9.8216 C.3     1  UNL1        0.0641
     30 H           8.3294   -2.4893  -10.3457 H       1  UNL1        0.0600
     31 O          10.2884   -3.1295  -10.6752 O.3     1  UNL1       -0.3911
     32 C           9.7242   -1.1687   -9.3524 C.3     1  UNL1        0.0001
     33 C           8.9420   -0.9466   -8.0505 C.3     1  UNL1        0.0613
     34 H           7.9392   -0.5930   -8.3068 H       1  UNL1        0.0597
     35 O           9.5918    0.0360   -7.2395 O.3     1  UNL1       -0.3914
     36 H          19.5310   -7.5262   -3.5023 H       1  UNL1        0.0245
     37 H          19.0251   -5.8561   -3.8088 H       1  UNL1        0.0245
     38 H          18.9861   -7.0519   -5.1199 H       1  UNL1        0.0245
     39 H          17.2417   -7.1281   -2.5922 H       1  UNL1        0.0459
     40 H          17.2060   -8.3296   -3.8993 H       1  UNL1        0.0459
     41 H          16.7409   -5.7803   -5.0383 H       1  UNL1        0.1487
     42 H          14.3842   -5.9345   -6.1446 H       1  UNL1        0.0358
     43 H          14.5770   -4.6454   -4.9630 H       1  UNL1        0.0358
     44 H          12.5581   -5.4608   -3.7228 H       1  UNL1        0.0273
     45 H          12.3654   -6.7700   -4.8901 H       1  UNL1        0.0273
     46 H          12.2652   -3.7900   -5.5741 H       1  UNL1        0.0307
     47 H          12.0388   -5.1093   -6.7207 H       1  UNL1        0.0307
     48 H          10.0848   -5.8177   -4.8946 H       1  UNL1        0.0569
     49 H           8.4881   -4.1080   -5.2218 H       1  UNL1        0.0569
     50 H           9.5446   -1.7974   -5.4041 H       1  UNL1        0.0311
     51 H          10.7898   -2.4244   -6.4687 H       1  UNL1        0.0311
     52 H           8.6061   -5.4973   -8.6368 H       1  UNL1        0.0573
     53 H           6.2841   -5.4171   -8.8885 H       1  UNL1        0.0594
     54 H           5.8169   -2.6530  -10.7084 H       1  UNL1        0.2102
     55 H           5.3367   -3.4010   -6.7554 H       1  UNL1        0.0296
     56 H           4.2854   -4.2910   -7.8476 H       1  UNL1        0.0296
     57 H           3.3270   -2.1209   -8.6867 H       1  UNL1        0.0314
     58 H           4.4013   -1.2360   -7.6172 H       1  UNL1        0.0314
     59 H           3.4947   -0.5594   -5.5303 H       1  UNL1        0.0620
     60 H           1.7921   -0.7652   -3.7503 H       1  UNL1        0.0618
     61 H           0.1357   -2.6104   -3.8157 H       1  UNL1        0.0618
     62 H           0.1808   -4.2485   -5.6782 H       1  UNL1        0.0618
     63 H           1.8697   -4.0433   -7.4707 H       1  UNL1        0.0620
     64 H          10.0850   -4.0672  -10.8495 H       1  UNL1        0.2098
     65 H           9.4936   -0.4036  -10.0975 H       1  UNL1        0.0315
     66 H          10.8002   -1.1561   -9.1545 H       1  UNL1        0.0315
     67 H           9.7306    0.8331   -7.7834 H       1  UNL1        0.2098
@<TRIPOS>BOND
     1     1     2    1
     2     2     3    1
     3     3     4   am
     4     4     5    2
     5     4     6    1
     6     6     7    1
     7     7     8    1
     8     8     9    1
     9     9    10    2
    10    10    11    1
    11    12    14    1
    12    14    15    1
    13    14    16    1
    14    16    17    2
    15    17    18    1
    16    18    19    1
    17    18    20    1
    18    18    21    1
    19    21    22    1
    20    22    23    1
    21    23    24   ar
    22    24    25   ar
    23    25    26   ar
    24    26    27   ar
    25    27    28   ar
    26    23    28   ar
    27    14    29    1
    28    29    30    1
    29    29    31    1
    30    29    32    1
    31    32    33    1
    32    33    34    1
    33    12    33    1
    34    33    35    1
    35    12    13    1
    36    12    11    1
    37     1    36    1
    38     1    37    1
    39     1    38    1
    40     2    39    1
    41     2    40    1
    42     3    41    1
    43     6    42    1
    44     6    43    1
    45     7    44    1
    46     7    45    1
    47     8    46    1
    48     8    47    1
    49     9    48    1
    50    10    49    1
    51    11    50    1
    52    11    51    1
    53    16    52    1
    54    17    53    1
    55    20    54    1
    56    21    55    1
    57    21    56    1
    58    22    57    1
    59    22    58    1
    60    24    59    1
    61    25    60    1
    62    26    61    1
    63    27    62    1
    64    28    63    1
    65    31    64    1
    66    32    65    1
    67    32    66    1
    68    35    67    1
