@<TRIPOS>MOLECULE
Tafamidis
 27 29 0 0 0
SMALL
GASTEIGER

@<TRIPOS>ATOM
      1 O           2.0026   -1.0942   -0.8277 O.2     1  UNL1       -0.2451
      2 C           2.5838   -0.2864   -0.1328 C.2     1  UNL1        0.3369
      3 O           2.6742    0.9670   -0.4936 O.3     1  UNL1       -0.4771
      4 C           3.2372   -0.6434    1.1745 C.ar    1  UNL1        0.0624
      5 C           3.9066    0.3190    1.9616 C.ar    1  UNL1       -0.0455
      6 C           4.5074   -0.0365    3.1748 C.ar    1  UNL1       -0.0318
      7 C           4.4197   -1.3635    3.5709 C.ar    1  UNL1        0.1099
      8 N           4.8590   -2.0243    4.6246 N.ar    1  UNL1       -0.2089
      9 C           4.4478   -3.3118    4.4303 C.ar    1  UNL1        0.2285
     10 C           4.7267   -4.3437    5.3529 C.ar    1  UNL1        0.0397
     11 C           5.4492   -4.0838    6.5255 C.ar    1  UNL1       -0.0310
     12 C           5.7187   -5.1105    7.4292 C.ar    1  UNL1        0.0431
     13 CL          6.6117   -4.7744    8.8722 Cl      1  UNL1       -0.0835
     14 C           5.2730   -6.4054    7.1765 C.ar    1  UNL1       -0.0250
     15 C           4.5545   -6.6718    6.0139 C.ar    1  UNL1        0.0431
     16 CL          3.9985   -8.2786    5.6952 Cl      1  UNL1       -0.0835
     17 C           4.2818   -5.6497    5.1063 C.ar    1  UNL1       -0.0310
     18 O           3.8629   -3.5028    3.4729 O.2     1  UNL1       -0.4353
     19 C           3.7834   -2.2899    2.8276 C.ar    1  UNL1        0.1565
     20 C           3.1762   -1.9739    1.6194 C.ar    1  UNL1       -0.0032
     21 H           3.1721    1.4379    0.1935 H       1  UNL1        0.2954
     22 H           3.9691    1.3553    1.6416 H       1  UNL1        0.0626
     23 H           5.0244    0.6993    3.7859 H       1  UNL1        0.0640
     24 H           5.8092   -3.0823    6.7479 H       1  UNL1        0.0640
     25 H           5.4848   -7.2043    7.8834 H       1  UNL1        0.0647
     26 H           3.7189   -5.8793    4.2041 H       1  UNL1        0.0640
     27 H           2.6701   -2.7437    1.0419 H       1  UNL1        0.0663
@<TRIPOS>BOND
     1     1     2    2
     2     2     3    1
     3     2     4    1
     4     4     5   ar
     5     5     6   ar
     6     6     7   ar
     7     7     8   ar
     8     8     9   ar
     9     9    10    1
    10    10    11   ar
    11    11    12   ar
    12    12    13    1
    13    12    14   ar
    14    14    15   ar
    15    15    16    1
    16    15    17   ar
    17    10    17   ar
    18     9    18   ar
    19    18    19   ar
    20     7    19   ar
    21    19    20   ar
    22     4    20   ar
    23     3    21    1
    24     5    22    1
    25     6    23    1
    26    11    24    1
    27    14    25    1
    28    17    26    1
    29    20    27    1
